./build/X86/gem5.opt --debug-flags=MemCtrl \
   	--outdir="./m5out/pudma/puse/putest32"/X86 \
	configs/pudma/puse.py --cmd=./tests/test-progs/pudma/bin/x86/linux/putest32-static
Global frequency set at 1000000000000 ticks per second
      0: system.mem_ctrls: Setting up controller
gem5 Simulator System.  https://www.gem5.org
gem5 is copyrighted software; use the --copyright option for details.

gem5 version 22.0.0.2
gem5 compiled Aug  6 2022 15:42:40
gem5 started Aug  6 2022 16:35:57
gem5 executing on NOTEBOOK-LGGRAM, pid 21385
command line: ./build/X86/gem5.opt --debug-flags=MemCtrl --outdir=./m5out/pudma/puse/putest32/X86 configs/pudma/puse.py --cmd=./tests/test-progs/pudma/bin/x86/linux/putest32-static

**** REAL SIMULATION ****
      0: system.mem_ctrls: recvAtomic: ReadReq 0x1be0
    500: system.mem_ctrls: recvAtomic: ReadReq 0x1be0
    500: system.mem_ctrls: recvAtomic: ReadReq 0x9deb0
   2000: system.mem_ctrls: recvAtomic: ReadReq 0x1be0
   2500: system.mem_ctrls: recvAtomic: ReadReq 0x1be0
   3500: system.mem_ctrls: recvAtomic: ReadReq 0x1be8
   3500: system.mem_ctrls: recvAtomic: WriteReq 0x9deac
   4500: system.mem_ctrls: recvAtomic: ReadReq 0x1be8
   4500: system.mem_ctrls: recvAtomic: WriteReq 0x9dea8
   5500: system.mem_ctrls: recvAtomic: ReadReq 0x1be8
   5500: system.mem_ctrls: recvAtomic: WriteReq 0x9dea4
   6500: system.mem_ctrls: recvAtomic: ReadReq 0x1be8
   7500: system.mem_ctrls: recvAtomic: WriteReq 0x9dea0
   9000: system.mem_ctrls: recvAtomic: ReadReq 0x1c10
   9000: system.mem_ctrls: recvAtomic: ReadReq 0x9dea0
   9500: system.mem_ctrls: recvAtomic: ReadReq 0x1c10
   9500: system.mem_ctrls: recvAtomic: ReadReq 0x9dea0
  11000: system.mem_ctrls: recvAtomic: ReadReq 0x1bf0
  12000: system.mem_ctrls: recvAtomic: ReadReq 0x1bf0
  12500: system.mem_ctrls: recvAtomic: ReadReq 0x1bf8
  13000: system.mem_ctrls: recvAtomic: ReadReq 0x1bf8
  13000: system.mem_ctrls: recvAtomic: WriteReq 0x9dea0
  14000: system.mem_ctrls: recvAtomic: ReadReq 0x1bf8
  14500: system.mem_ctrls: recvAtomic: ReadReq 0x1c00
  15000: system.mem_ctrls: recvAtomic: ReadReq 0x1c00
  15000: system.mem_ctrls: recvAtomic: WriteReq 0x9de9c
  16000: system.mem_ctrls: recvAtomic: ReadReq 0x1c00
  16000: system.mem_ctrls: recvAtomic: WriteReq 0x9de98
  17000: system.mem_ctrls: recvAtomic: ReadReq 0x1c00
  17000: system.mem_ctrls: recvAtomic: WriteReq 0x9de94
  18000: system.mem_ctrls: recvAtomic: ReadReq 0x1c00
  18500: system.mem_ctrls: recvAtomic: ReadReq 0x1c08
  19000: system.mem_ctrls: recvAtomic: ReadReq 0x1c08
  19000: system.mem_ctrls: recvAtomic: WriteReq 0x9de90
  20000: system.mem_ctrls: recvAtomic: ReadReq 0x1c08
  20500: system.mem_ctrls: recvAtomic: ReadReq 0x1c10
  21500: system.mem_ctrls: recvAtomic: WriteReq 0x9de8c
  23000: system.mem_ctrls: recvAtomic: ReadReq 0x2180
  24000: system.mem_ctrls: recvAtomic: WriteReq 0x9de88
  25500: system.mem_ctrls: recvAtomic: ReadReq 0x1db8
  26000: system.mem_ctrls: recvAtomic: ReadReq 0x1dc0
  26000: system.mem_ctrls: recvAtomic: ReadReq 0x9de88
  26500: system.mem_ctrls: recvAtomic: ReadReq 0x1dc0
  26500: system.mem_ctrls: recvAtomic: ReadReq 0x9de88
  28000: system.mem_ctrls: recvAtomic: ReadReq 0x2180
  28500: system.mem_ctrls: recvAtomic: ReadReq 0x2188
  29500: system.mem_ctrls: recvAtomic: ReadReq 0x2188
  29500: system.mem_ctrls: recvAtomic: WriteReq 0x9de88
  30500: system.mem_ctrls: recvAtomic: ReadReq 0x2188
  30500: system.mem_ctrls: recvAtomic: WriteReq 0x9de84
  31500: system.mem_ctrls: recvAtomic: ReadReq 0x2188
  31500: system.mem_ctrls: recvAtomic: WriteReq 0x9de80
  32500: system.mem_ctrls: recvAtomic: ReadReq 0x2188
  33500: system.mem_ctrls: recvAtomic: ReadReq 0x2190
  34000: system.mem_ctrls: recvAtomic: ReadReq 0x2190
  34500: system.mem_ctrls: recvAtomic: ReadReq 0x2198
  34500: system.mem_ctrls: recvAtomic: WriteReq 0x9de2c
  35000: system.mem_ctrls: recvAtomic: ReadReq 0x2198
  35500: system.mem_ctrls: recvAtomic: ReadReq 0x2198
  36000: system.mem_ctrls: recvAtomic: ReadReq 0x2198
  37500: system.mem_ctrls: recvAtomic: ReadReq 0x21a8
  37500: system.mem_ctrls: recvAtomic: ReadReq 0x9de2c
  38000: system.mem_ctrls: recvAtomic: ReadReq 0x21a8
  38500: system.mem_ctrls: recvAtomic: ReadReq 0x21b0
  38500: system.mem_ctrls: recvAtomic: WriteReq 0x9bcb8
  39000: system.mem_ctrls: recvAtomic: ReadReq 0x21b0
  40000: system.mem_ctrls: recvAtomic: WriteReq 0x9de1c
  41500: system.mem_ctrls: recvAtomic: ReadReq 0x1c20
  41500: system.mem_ctrls: recvAtomic: ReadReq 0x9de1c
  43000: system.mem_ctrls: recvAtomic: ReadReq 0x21b8
  43000: system.mem_ctrls: recvAtomic: ReadReq 0x9de98
  43500: system.mem_ctrls: recvAtomic: ReadReq 0x21b8
  43500: system.mem_ctrls: recvAtomic: ReadReq 0x9de94
  44000: system.mem_ctrls: recvAtomic: ReadReq 0x21c0
  44500: system.mem_ctrls: recvAtomic: ReadReq 0x21c0
  45000: system.mem_ctrls: recvAtomic: ReadReq 0x21c8
  45000: system.mem_ctrls: recvAtomic: ReadReq 0x9dea8
  45500: system.mem_ctrls: recvAtomic: ReadReq 0x21c8
  46000: system.mem_ctrls: recvAtomic: ReadReq 0x21d0
  46500: system.mem_ctrls: recvAtomic: ReadReq 0x21d0
  46500: system.mem_ctrls: recvAtomic: WriteReq 0x9cac0
  47000: system.mem_ctrls: recvAtomic: ReadReq 0x21d0
  47500: system.mem_ctrls: recvAtomic: ReadReq 0x21d8
  48000: system.mem_ctrls: recvAtomic: ReadReq 0x21d8
  48000: system.mem_ctrls: recvAtomic: WriteReq 0x9ad88
  48500: system.mem_ctrls: recvAtomic: ReadReq 0x21d8
  49000: system.mem_ctrls: recvAtomic: ReadReq 0x21d8
  49500: system.mem_ctrls: recvAtomic: ReadReq 0x21e0
  49500: system.mem_ctrls: recvAtomic: ReadReq 0x9debc
  50000: system.mem_ctrls: recvAtomic: ReadReq 0x21e0
  51000: system.mem_ctrls: recvAtomic: ReadReq 0x21e0
  51500: system.mem_ctrls: recvAtomic: ReadReq 0x21e0
  52000: system.mem_ctrls: recvAtomic: ReadReq 0x21e8
  53500: system.mem_ctrls: recvAtomic: ReadReq 0x21e8
  54500: system.mem_ctrls: recvAtomic: ReadReq 0x21e8
  54500: system.mem_ctrls: recvAtomic: WriteReq 0x9de10
  55500: system.mem_ctrls: recvAtomic: ReadReq 0x21e8
  56000: system.mem_ctrls: recvAtomic: ReadReq 0x21f0
  57000: system.mem_ctrls: recvAtomic: WriteReq 0x9de0c
  58500: system.mem_ctrls: recvAtomic: ReadReq 0x29730
  59500: system.mem_ctrls: recvAtomic: WriteReq 0x9de08
  61000: system.mem_ctrls: recvAtomic: ReadReq 0x10e68
  61000: system.mem_ctrls: recvAtomic: ReadReq 0x9de08
  61500: system.mem_ctrls: recvAtomic: ReadReq 0x10e68
  61500: system.mem_ctrls: recvAtomic: ReadReq 0x9de08
  63000: system.mem_ctrls: recvAtomic: ReadReq 0x29730
  63500: system.mem_ctrls: recvAtomic: ReadReq 0x29738
  64500: system.mem_ctrls: recvAtomic: ReadReq 0x29738
  64500: system.mem_ctrls: recvAtomic: WriteReq 0x9de08
  65500: system.mem_ctrls: recvAtomic: ReadReq 0x29738
  65500: system.mem_ctrls: recvAtomic: WriteReq 0x9de04
  66500: system.mem_ctrls: recvAtomic: ReadReq 0x29738
  66500: system.mem_ctrls: recvAtomic: WriteReq 0x9de00
  67500: system.mem_ctrls: recvAtomic: ReadReq 0x29738
  67500: system.mem_ctrls: recvAtomic: WriteReq 0x9ddfc
  68500: system.mem_ctrls: recvAtomic: ReadReq 0x29738
  69000: system.mem_ctrls: recvAtomic: ReadReq 0x29740
  70000: system.mem_ctrls: recvAtomic: ReadReq 0x29740
  70000: system.mem_ctrls: recvAtomic: ReadReq 0x9de10
  70500: system.mem_ctrls: recvAtomic: ReadReq 0x29740
  71000: system.mem_ctrls: recvAtomic: ReadReq 0x29748
  71000: system.mem_ctrls: recvAtomic: WriteReq 0x9cb10
  71500: system.mem_ctrls: recvAtomic: ReadReq 0x29748
  71500: system.mem_ctrls: recvAtomic: ReadReq 0x9dec0
  72000: system.mem_ctrls: recvAtomic: ReadReq 0x29748
  72500: system.mem_ctrls: recvAtomic: ReadReq 0x29750
  74000: system.mem_ctrls: recvAtomic: ReadReq 0x29750
  74500: system.mem_ctrls: recvAtomic: ReadReq 0x29758
  74500: system.mem_ctrls: recvAtomic: ReadReq 0x9cae8
  75000: system.mem_ctrls: recvAtomic: ReadReq 0x29758
  75500: system.mem_ctrls: recvAtomic: ReadReq 0x29760
  75500: system.mem_ctrls: recvAtomic: ReadReq 0x9b9c0
  76000: system.mem_ctrls: recvAtomic: ReadReq 0x29760
  76500: system.mem_ctrls: recvAtomic: ReadReq 0x29760
  77000: system.mem_ctrls: recvAtomic: ReadReq 0x29768
  77000: system.mem_ctrls: recvAtomic: ReadReq 0x9cafc
  77500: system.mem_ctrls: recvAtomic: ReadReq 0x29768
  78000: system.mem_ctrls: recvAtomic: ReadReq 0x29768
  78000: system.mem_ctrls: recvAtomic: WriteReq 0x9dddc
  78500: system.mem_ctrls: recvAtomic: ReadReq 0x29770
  78500: system.mem_ctrls: recvAtomic: ReadReq 0x9ad80
  79000: system.mem_ctrls: recvAtomic: ReadReq 0x29770
  79500: system.mem_ctrls: recvAtomic: ReadReq 0x29778
  79500: system.mem_ctrls: recvAtomic: WriteReq 0x9ddd8
  80000: system.mem_ctrls: recvAtomic: ReadReq 0x29778
  80000: system.mem_ctrls: recvAtomic: ReadReq 0x9caf8
  80500: system.mem_ctrls: recvAtomic: ReadReq 0x29780
  80500: system.mem_ctrls: recvAtomic: WriteReq 0x9dde8
  81000: system.mem_ctrls: recvAtomic: ReadReq 0x29780
  81500: system.mem_ctrls: recvAtomic: ReadReq 0x29788
  82000: system.mem_ctrls: recvAtomic: ReadReq 0x29788
  82000: system.mem_ctrls: recvAtomic: WriteReq 0x9ddc8
  82500: system.mem_ctrls: recvAtomic: ReadReq 0x29788
  82500: system.mem_ctrls: recvAtomic: ReadReq 0x9ada0
  83000: system.mem_ctrls: recvAtomic: ReadReq 0x29790
  83000: system.mem_ctrls: recvAtomic: WriteReq 0x9ddf0
  83500: system.mem_ctrls: recvAtomic: ReadReq 0x29790
  83500: system.mem_ctrls: recvAtomic: WriteReq 0x9ddcc
  84000: system.mem_ctrls: recvAtomic: ReadReq 0x29798
  84000: system.mem_ctrls: recvAtomic: ReadReq 0x9cb04
  84500: system.mem_ctrls: recvAtomic: ReadReq 0x29798
  85000: system.mem_ctrls: recvAtomic: ReadReq 0x297a0
  85000: system.mem_ctrls: recvAtomic: WriteReq 0x9dde0
  85500: system.mem_ctrls: recvAtomic: ReadReq 0x297a0
  86000: system.mem_ctrls: recvAtomic: ReadReq 0x297a8
  86000: system.mem_ctrls: recvAtomic: WriteReq 0x9ddc4
  86500: system.mem_ctrls: recvAtomic: ReadReq 0x297a8
  87000: system.mem_ctrls: recvAtomic: ReadReq 0x297a8
  87000: system.mem_ctrls: recvAtomic: ReadReq 0x9cc14
  87500: system.mem_ctrls: recvAtomic: ReadReq 0x297b0
  87500: system.mem_ctrls: recvAtomic: WriteReq 0x9ddf4
  88000: system.mem_ctrls: recvAtomic: ReadReq 0x297b0
  88500: system.mem_ctrls: recvAtomic: ReadReq 0x297b8
  88500: system.mem_ctrls: recvAtomic: ReadReq 0x9b984
  89500: system.mem_ctrls: recvAtomic: ReadReq 0x297b8
  89500: system.mem_ctrls: recvAtomic: WriteReq 0x9dde4
  90000: system.mem_ctrls: recvAtomic: ReadReq 0x297b8
  90500: system.mem_ctrls: recvAtomic: ReadReq 0x297c0
  90500: system.mem_ctrls: recvAtomic: ReadReq 0x9cae0
  91000: system.mem_ctrls: recvAtomic: ReadReq 0x297c0
  91500: system.mem_ctrls: recvAtomic: ReadReq 0x297c8
  91500: system.mem_ctrls: recvAtomic: WriteReq 0x9ddd4
  92000: system.mem_ctrls: recvAtomic: ReadReq 0x297c8
  92000: system.mem_ctrls: recvAtomic: ReadReq 0x9cb00
  92500: system.mem_ctrls: recvAtomic: ReadReq 0x297d0
  92500: system.mem_ctrls: recvAtomic: WriteReq 0x9ddb0
  93000: system.mem_ctrls: recvAtomic: ReadReq 0x297d0
  93500: system.mem_ctrls: recvAtomic: ReadReq 0x297d8
  93500: system.mem_ctrls: recvAtomic: ReadReq 0x9b990
  94000: system.mem_ctrls: recvAtomic: ReadReq 0x297d8
  94000: system.mem_ctrls: recvAtomic: WriteReq 0x9ddc0
  94500: system.mem_ctrls: recvAtomic: ReadReq 0x297d8
  95000: system.mem_ctrls: recvAtomic: ReadReq 0x297e0
  95000: system.mem_ctrls: recvAtomic: ReadReq 0x9cc0c
  95500: system.mem_ctrls: recvAtomic: ReadReq 0x297e0
  95500: system.mem_ctrls: recvAtomic: WriteReq 0x9dda8
  96000: system.mem_ctrls: recvAtomic: ReadReq 0x297e8
  96000: system.mem_ctrls: recvAtomic: WriteReq 0x9ddbc
  96500: system.mem_ctrls: recvAtomic: ReadReq 0x297e8
  97000: system.mem_ctrls: recvAtomic: ReadReq 0x297f0
  97000: system.mem_ctrls: recvAtomic: ReadReq 0x9cb08
  97500: system.mem_ctrls: recvAtomic: ReadReq 0x297f0
  97500: system.mem_ctrls: recvAtomic: WriteReq 0x9ddb8
  98000: system.mem_ctrls: recvAtomic: ReadReq 0x297f0
  98500: system.mem_ctrls: recvAtomic: ReadReq 0x297f8
  98500: system.mem_ctrls: recvAtomic: ReadReq 0x9cb0c
  99000: system.mem_ctrls: recvAtomic: ReadReq 0x297f8
  99500: system.mem_ctrls: recvAtomic: ReadReq 0x297f8
 100000: system.mem_ctrls: recvAtomic: ReadReq 0x29800
 100500: system.mem_ctrls: recvAtomic: WriteReq 0x9ddef
 101000: system.mem_ctrls: recvAtomic: ReadReq 0x29800
 101500: system.mem_ctrls: recvAtomic: WriteReq 0x9ddee
 102000: system.mem_ctrls: recvAtomic: ReadReq 0x29808
 102500: system.mem_ctrls: recvAtomic: WriteReq 0x9dded
 103000: system.mem_ctrls: recvAtomic: ReadReq 0x29808
 103500: system.mem_ctrls: recvAtomic: ReadReq 0x29810
 104000: system.mem_ctrls: recvAtomic: WriteReq 0x9ddec
 104500: system.mem_ctrls: recvAtomic: ReadReq 0x29810
 105000: system.mem_ctrls: recvAtomic: WriteReq 0x9ddd7
 105500: system.mem_ctrls: recvAtomic: ReadReq 0x29810
 106000: system.mem_ctrls: recvAtomic: ReadReq 0x29818
 106500: system.mem_ctrls: recvAtomic: WriteReq 0x9ddd6
 107000: system.mem_ctrls: recvAtomic: ReadReq 0x29818
 107500: system.mem_ctrls: recvAtomic: ReadReq 0x29820
 108000: system.mem_ctrls: recvAtomic: WriteReq 0x9ddd3
 108500: system.mem_ctrls: recvAtomic: ReadReq 0x29820
 109000: system.mem_ctrls: recvAtomic: WriteReq 0x9ddd2
 109500: system.mem_ctrls: recvAtomic: ReadReq 0x29820
 110000: system.mem_ctrls: recvAtomic: ReadReq 0x29828
 110500: system.mem_ctrls: recvAtomic: WriteReq 0x9ddd1
 111000: system.mem_ctrls: recvAtomic: ReadReq 0x29828
 111500: system.mem_ctrls: recvAtomic: WriteReq 0x9ddd0
 112000: system.mem_ctrls: recvAtomic: ReadReq 0x29830
 112500: system.mem_ctrls: recvAtomic: WriteReq 0x9ddaf
 113000: system.mem_ctrls: recvAtomic: ReadReq 0x29830
 113500: system.mem_ctrls: recvAtomic: ReadReq 0x29838
 113500: system.mem_ctrls: recvAtomic: WriteReq 0x9dda4
 114000: system.mem_ctrls: recvAtomic: ReadReq 0x29838
 114000: system.mem_ctrls: recvAtomic: WriteReq 0x9ddae
 114500: system.mem_ctrls: recvAtomic: ReadReq 0x29838
 115000: system.mem_ctrls: recvAtomic: ReadReq 0x29840
 115000: system.mem_ctrls: recvAtomic: ReadReq 0x9de10
 115500: system.mem_ctrls: recvAtomic: ReadReq 0x29840
 115500: system.mem_ctrls: recvAtomic: WriteReq 0x9ddb4
 116000: system.mem_ctrls: recvAtomic: ReadReq 0x29840
 116500: system.mem_ctrls: recvAtomic: ReadReq 0x29840
 117000: system.mem_ctrls: recvAtomic: ReadReq 0x29848
 117500: system.mem_ctrls: recvAtomic: ReadReq 0x29848
 118000: system.mem_ctrls: recvAtomic: ReadReq 0x29850
 119000: system.mem_ctrls: recvAtomic: ReadReq 0x29850
 120000: system.mem_ctrls: recvAtomic: ReadReq 0x29850
 121500: system.mem_ctrls: recvAtomic: ReadReq 0x29858
 121500: system.mem_ctrls: recvAtomic: ReadReq 0x6d234
 122000: system.mem_ctrls: recvAtomic: ReadReq 0x29858
 122500: system.mem_ctrls: recvAtomic: ReadReq 0x29860
 123000: system.mem_ctrls: recvAtomic: ReadReq 0x29860
 123500: system.mem_ctrls: recvAtomic: ReadReq 0x299c0
 123500: system.mem_ctrls: recvAtomic: ReadReq 0x9dec4
 124000: system.mem_ctrls: recvAtomic: ReadReq 0x299c0
 125000: system.mem_ctrls: recvAtomic: ReadReq 0x299c0
 125500: system.mem_ctrls: recvAtomic: ReadReq 0x299c8
 126000: system.mem_ctrls: recvAtomic: WriteReq 0x9ddec
 126500: system.mem_ctrls: recvAtomic: ReadReq 0x299c8
 126500: system.mem_ctrls: recvAtomic: WriteReq 0x9ddd8
 127000: system.mem_ctrls: recvAtomic: ReadReq 0x299c8
 127500: system.mem_ctrls: recvAtomic: ReadReq 0x299d0
 127500: system.mem_ctrls: recvAtomic: ReadReq 0x9dec8
 128000: system.mem_ctrls: recvAtomic: ReadReq 0x299d0
 128500: system.mem_ctrls: recvAtomic: ReadReq 0x299d0
 129000: system.mem_ctrls: recvAtomic: ReadReq 0x299d8
 130500: system.mem_ctrls: recvAtomic: ReadReq 0x29850
 131500: system.mem_ctrls: recvAtomic: ReadReq 0x29850
 132500: system.mem_ctrls: recvAtomic: ReadReq 0x29850
 134000: system.mem_ctrls: recvAtomic: ReadReq 0x29858
 134000: system.mem_ctrls: recvAtomic: ReadReq 0x6d238
 134500: system.mem_ctrls: recvAtomic: ReadReq 0x29858
 135000: system.mem_ctrls: recvAtomic: ReadReq 0x29860
 135500: system.mem_ctrls: recvAtomic: ReadReq 0x29860
 136000: system.mem_ctrls: recvAtomic: ReadReq 0x299a0
 136000: system.mem_ctrls: recvAtomic: ReadReq 0x9decc
 136500: system.mem_ctrls: recvAtomic: ReadReq 0x299a0
 137500: system.mem_ctrls: recvAtomic: ReadReq 0x299a0
 138000: system.mem_ctrls: recvAtomic: ReadReq 0x299a8
 138500: system.mem_ctrls: recvAtomic: WriteReq 0x9dded
 139000: system.mem_ctrls: recvAtomic: ReadReq 0x299a8
 139000: system.mem_ctrls: recvAtomic: WriteReq 0x9dddc
 139500: system.mem_ctrls: recvAtomic: ReadReq 0x299a8
 140000: system.mem_ctrls: recvAtomic: ReadReq 0x299b0
 140000: system.mem_ctrls: recvAtomic: ReadReq 0x9ded0
 140500: system.mem_ctrls: recvAtomic: ReadReq 0x299b0
 141000: system.mem_ctrls: recvAtomic: ReadReq 0x299b0
 141500: system.mem_ctrls: recvAtomic: ReadReq 0x299b8
 143000: system.mem_ctrls: recvAtomic: ReadReq 0x29850
 144000: system.mem_ctrls: recvAtomic: ReadReq 0x29850
 145000: system.mem_ctrls: recvAtomic: ReadReq 0x29850
 146500: system.mem_ctrls: recvAtomic: ReadReq 0x29858
 146500: system.mem_ctrls: recvAtomic: ReadReq 0x6d1f4
 147000: system.mem_ctrls: recvAtomic: ReadReq 0x29858
 147500: system.mem_ctrls: recvAtomic: ReadReq 0x29860
 148000: system.mem_ctrls: recvAtomic: ReadReq 0x29860
 148500: system.mem_ctrls: recvAtomic: ReadReq 0x29a80
 148500: system.mem_ctrls: recvAtomic: ReadReq 0x9ded4
 149000: system.mem_ctrls: recvAtomic: ReadReq 0x29a80
 149000: system.mem_ctrls: recvAtomic: ReadReq 0x9ded8
 149500: system.mem_ctrls: recvAtomic: ReadReq 0x29a80
 150000: system.mem_ctrls: recvAtomic: ReadReq 0x29a88
 151000: system.mem_ctrls: recvAtomic: ReadReq 0x29a88
 151000: system.mem_ctrls: recvAtomic: WriteReq 0x9ddc4
 151500: system.mem_ctrls: recvAtomic: ReadReq 0x29a88
 152000: system.mem_ctrls: recvAtomic: ReadReq 0x29a90
 152000: system.mem_ctrls: recvAtomic: WriteReq 0x9ddc0
 152500: system.mem_ctrls: recvAtomic: ReadReq 0x29a90
 153000: system.mem_ctrls: recvAtomic: WriteReq 0x9ddd3
 153500: system.mem_ctrls: recvAtomic: ReadReq 0x29a98
 154000: system.mem_ctrls: recvAtomic: ReadReq 0x29a98
 155500: system.mem_ctrls: recvAtomic: ReadReq 0x29850
 156500: system.mem_ctrls: recvAtomic: ReadReq 0x29850
 157500: system.mem_ctrls: recvAtomic: ReadReq 0x29850
 159000: system.mem_ctrls: recvAtomic: ReadReq 0x29858
 159000: system.mem_ctrls: recvAtomic: ReadReq 0x6d1cc
 159500: system.mem_ctrls: recvAtomic: ReadReq 0x29858
 160000: system.mem_ctrls: recvAtomic: ReadReq 0x29860
 160500: system.mem_ctrls: recvAtomic: ReadReq 0x29860
 161000: system.mem_ctrls: recvAtomic: ReadReq 0x29b50
 161000: system.mem_ctrls: recvAtomic: ReadReq 0x9dedc
 161500: system.mem_ctrls: recvAtomic: ReadReq 0x29b50
 161500: system.mem_ctrls: recvAtomic: ReadReq 0x9ddae
 162500: system.mem_ctrls: recvAtomic: ReadReq 0x29b58
 163000: system.mem_ctrls: recvAtomic: ReadReq 0x29b58
 163000: system.mem_ctrls: recvAtomic: ReadReq 0x9dda8
 164500: system.mem_ctrls: recvAtomic: ReadReq 0x29b58
 165000: system.mem_ctrls: recvAtomic: ReadReq 0x29b60
 165000: system.mem_ctrls: recvAtomic: WriteReq 0x9dda8
 165500: system.mem_ctrls: recvAtomic: ReadReq 0x29b60
 166000: system.mem_ctrls: recvAtomic: ReadReq 0x29b68
 167000: system.mem_ctrls: recvAtomic: ReadReq 0x29b68
 168000: system.mem_ctrls: recvAtomic: ReadReq 0x29b68
 168500: system.mem_ctrls: recvAtomic: ReadReq 0x29b70
 168500: system.mem_ctrls: recvAtomic: WriteReq 0x9ddae
 169000: system.mem_ctrls: recvAtomic: ReadReq 0x29b70
 169000: system.mem_ctrls: recvAtomic: ReadReq 0x9dee0
 169500: system.mem_ctrls: recvAtomic: ReadReq 0x29b70
 170000: system.mem_ctrls: recvAtomic: ReadReq 0x29b78
 171500: system.mem_ctrls: recvAtomic: ReadReq 0x29850
 172500: system.mem_ctrls: recvAtomic: ReadReq 0x29850
 173500: system.mem_ctrls: recvAtomic: ReadReq 0x29850
 175000: system.mem_ctrls: recvAtomic: ReadReq 0x29858
 175000: system.mem_ctrls: recvAtomic: ReadReq 0x6d1f8
 175500: system.mem_ctrls: recvAtomic: ReadReq 0x29858
 176000: system.mem_ctrls: recvAtomic: ReadReq 0x29860
 176500: system.mem_ctrls: recvAtomic: ReadReq 0x29860
 177000: system.mem_ctrls: recvAtomic: ReadReq 0x29a60
 177000: system.mem_ctrls: recvAtomic: ReadReq 0x9dee4
 177500: system.mem_ctrls: recvAtomic: ReadReq 0x29a60
 178500: system.mem_ctrls: recvAtomic: ReadReq 0x29a60
 179000: system.mem_ctrls: recvAtomic: ReadReq 0x29a68
 179500: system.mem_ctrls: recvAtomic: WriteReq 0x9ddaf
 180000: system.mem_ctrls: recvAtomic: ReadReq 0x29a68
 180000: system.mem_ctrls: recvAtomic: WriteReq 0x9ddb0
 180500: system.mem_ctrls: recvAtomic: ReadReq 0x29a68
 181000: system.mem_ctrls: recvAtomic: ReadReq 0x29a70
 181000: system.mem_ctrls: recvAtomic: ReadReq 0x9dee8
 181500: system.mem_ctrls: recvAtomic: ReadReq 0x29a70
 182000: system.mem_ctrls: recvAtomic: ReadReq 0x29a70
 182500: system.mem_ctrls: recvAtomic: ReadReq 0x29a78
 184000: system.mem_ctrls: recvAtomic: ReadReq 0x29850
 185000: system.mem_ctrls: recvAtomic: ReadReq 0x29850
 186000: system.mem_ctrls: recvAtomic: ReadReq 0x29850
 187500: system.mem_ctrls: recvAtomic: ReadReq 0x29858
 187500: system.mem_ctrls: recvAtomic: ReadReq 0x6d1c0
 188000: system.mem_ctrls: recvAtomic: ReadReq 0x29858
 188500: system.mem_ctrls: recvAtomic: ReadReq 0x29860
 189000: system.mem_ctrls: recvAtomic: ReadReq 0x29860
 189500: system.mem_ctrls: recvAtomic: ReadReq 0x29bb0
 189500: system.mem_ctrls: recvAtomic: ReadReq 0x9deec
 190000: system.mem_ctrls: recvAtomic: ReadReq 0x29bb0
 191000: system.mem_ctrls: recvAtomic: ReadReq 0x29bb0
 191500: system.mem_ctrls: recvAtomic: ReadReq 0x29bb8
 192000: system.mem_ctrls: recvAtomic: WriteReq 0x9ddd0
 192500: system.mem_ctrls: recvAtomic: ReadReq 0x29bb8
 192500: system.mem_ctrls: recvAtomic: WriteReq 0x9ddb4
 193000: system.mem_ctrls: recvAtomic: ReadReq 0x29bb8
 193500: system.mem_ctrls: recvAtomic: ReadReq 0x29bc0
 193500: system.mem_ctrls: recvAtomic: ReadReq 0x9def0
 194000: system.mem_ctrls: recvAtomic: ReadReq 0x29bc0
 194500: system.mem_ctrls: recvAtomic: ReadReq 0x29bc0
 195000: system.mem_ctrls: recvAtomic: ReadReq 0x29bc8
 196500: system.mem_ctrls: recvAtomic: ReadReq 0x29850
 197500: system.mem_ctrls: recvAtomic: ReadReq 0x29850
 198500: system.mem_ctrls: recvAtomic: ReadReq 0x29850
 200000: system.mem_ctrls: recvAtomic: ReadReq 0x29858
 200000: system.mem_ctrls: recvAtomic: ReadReq 0x6d1c4
 200500: system.mem_ctrls: recvAtomic: ReadReq 0x29858
 201000: system.mem_ctrls: recvAtomic: ReadReq 0x29860
 201500: system.mem_ctrls: recvAtomic: ReadReq 0x29860
 202000: system.mem_ctrls: recvAtomic: ReadReq 0x29878
 202000: system.mem_ctrls: recvAtomic: ReadReq 0x9def8
 202500: system.mem_ctrls: recvAtomic: ReadReq 0x29878
 203500: system.mem_ctrls: recvAtomic: ReadReq 0x29878
 204000: system.mem_ctrls: recvAtomic: ReadReq 0x29880
 205500: system.mem_ctrls: recvAtomic: ReadReq 0x29850
 206500: system.mem_ctrls: recvAtomic: ReadReq 0x29850
 207500: system.mem_ctrls: recvAtomic: ReadReq 0x29850
 209000: system.mem_ctrls: recvAtomic: ReadReq 0x29858
 209000: system.mem_ctrls: recvAtomic: ReadReq 0x6d1c8
 209500: system.mem_ctrls: recvAtomic: ReadReq 0x29858
 210000: system.mem_ctrls: recvAtomic: ReadReq 0x29860
 210500: system.mem_ctrls: recvAtomic: ReadReq 0x29860
 211000: system.mem_ctrls: recvAtomic: ReadReq 0x29b88
 211000: system.mem_ctrls: recvAtomic: ReadReq 0x9defc
 211500: system.mem_ctrls: recvAtomic: ReadReq 0x29b88
 212500: system.mem_ctrls: recvAtomic: ReadReq 0x29b88
 213000: system.mem_ctrls: recvAtomic: ReadReq 0x29b90
 213500: system.mem_ctrls: recvAtomic: WriteReq 0x9ddd1
 214000: system.mem_ctrls: recvAtomic: ReadReq 0x29b90
 214000: system.mem_ctrls: recvAtomic: WriteReq 0x9ddb8
 214500: system.mem_ctrls: recvAtomic: ReadReq 0x29b90
 215000: system.mem_ctrls: recvAtomic: ReadReq 0x29b98
 215000: system.mem_ctrls: recvAtomic: ReadReq 0x9df00
 215500: system.mem_ctrls: recvAtomic: ReadReq 0x29b98
 216000: system.mem_ctrls: recvAtomic: ReadReq 0x29b98
 216500: system.mem_ctrls: recvAtomic: ReadReq 0x29ba0
 218000: system.mem_ctrls: recvAtomic: ReadReq 0x29850
 219000: system.mem_ctrls: recvAtomic: ReadReq 0x29850
 220000: system.mem_ctrls: recvAtomic: ReadReq 0x29850
 221500: system.mem_ctrls: recvAtomic: ReadReq 0x29858
 221500: system.mem_ctrls: recvAtomic: ReadReq 0x6d1d0
 222000: system.mem_ctrls: recvAtomic: ReadReq 0x29858
 222500: system.mem_ctrls: recvAtomic: ReadReq 0x29860
 223000: system.mem_ctrls: recvAtomic: ReadReq 0x29860
 223500: system.mem_ctrls: recvAtomic: ReadReq 0x29878
 223500: system.mem_ctrls: recvAtomic: ReadReq 0x9df08
 224000: system.mem_ctrls: recvAtomic: ReadReq 0x29878
 225000: system.mem_ctrls: recvAtomic: ReadReq 0x29878
 225500: system.mem_ctrls: recvAtomic: ReadReq 0x29880
 227000: system.mem_ctrls: recvAtomic: ReadReq 0x29850
 228000: system.mem_ctrls: recvAtomic: ReadReq 0x29850
 229000: system.mem_ctrls: recvAtomic: ReadReq 0x29850
 230500: system.mem_ctrls: recvAtomic: ReadReq 0x29858
 230500: system.mem_ctrls: recvAtomic: ReadReq 0x6d1d4
 231000: system.mem_ctrls: recvAtomic: ReadReq 0x29858
 231500: system.mem_ctrls: recvAtomic: ReadReq 0x29860
 232000: system.mem_ctrls: recvAtomic: ReadReq 0x29860
 232500: system.mem_ctrls: recvAtomic: ReadReq 0x29878
 232500: system.mem_ctrls: recvAtomic: ReadReq 0x9df10
 233000: system.mem_ctrls: recvAtomic: ReadReq 0x29878
 234000: system.mem_ctrls: recvAtomic: ReadReq 0x29878
 234500: system.mem_ctrls: recvAtomic: ReadReq 0x29880
 236000: system.mem_ctrls: recvAtomic: ReadReq 0x29850
 237000: system.mem_ctrls: recvAtomic: ReadReq 0x29850
 238000: system.mem_ctrls: recvAtomic: ReadReq 0x29850
 239500: system.mem_ctrls: recvAtomic: ReadReq 0x29858
 239500: system.mem_ctrls: recvAtomic: ReadReq 0x6d1d8
 240000: system.mem_ctrls: recvAtomic: ReadReq 0x29858
 240500: system.mem_ctrls: recvAtomic: ReadReq 0x29860
 241000: system.mem_ctrls: recvAtomic: ReadReq 0x29860
 241500: system.mem_ctrls: recvAtomic: ReadReq 0x29878
 241500: system.mem_ctrls: recvAtomic: ReadReq 0x9df18
 242000: system.mem_ctrls: recvAtomic: ReadReq 0x29878
 243000: system.mem_ctrls: recvAtomic: ReadReq 0x29878
 243500: system.mem_ctrls: recvAtomic: ReadReq 0x29880
 245000: system.mem_ctrls: recvAtomic: ReadReq 0x29850
 246000: system.mem_ctrls: recvAtomic: ReadReq 0x29850
 247000: system.mem_ctrls: recvAtomic: ReadReq 0x29850
 248500: system.mem_ctrls: recvAtomic: ReadReq 0x29858
 248500: system.mem_ctrls: recvAtomic: ReadReq 0x6d1e0
 249000: system.mem_ctrls: recvAtomic: ReadReq 0x29858
 249500: system.mem_ctrls: recvAtomic: ReadReq 0x29860
 250000: system.mem_ctrls: recvAtomic: ReadReq 0x29860
 250500: system.mem_ctrls: recvAtomic: ReadReq 0x29b30
 250500: system.mem_ctrls: recvAtomic: ReadReq 0x9df1c
 251000: system.mem_ctrls: recvAtomic: ReadReq 0x29b30
 251000: system.mem_ctrls: recvAtomic: ReadReq 0x9df20
 251500: system.mem_ctrls: recvAtomic: ReadReq 0x29b30
 252000: system.mem_ctrls: recvAtomic: ReadReq 0x29b38
 253000: system.mem_ctrls: recvAtomic: ReadReq 0x29b38
 254000: system.mem_ctrls: recvAtomic: ReadReq 0x29b38
 254000: system.mem_ctrls: recvAtomic: ReadReq 0x9dda4
 255000: system.mem_ctrls: recvAtomic: WriteReq 0x9dda4
 255500: system.mem_ctrls: recvAtomic: ReadReq 0x29b40
 256000: system.mem_ctrls: recvAtomic: ReadReq 0x29b40
 257500: system.mem_ctrls: recvAtomic: ReadReq 0x29850
 258500: system.mem_ctrls: recvAtomic: ReadReq 0x29850
 259500: system.mem_ctrls: recvAtomic: ReadReq 0x29850
 261000: system.mem_ctrls: recvAtomic: ReadReq 0x29858
 261000: system.mem_ctrls: recvAtomic: ReadReq 0x6d1e4
 261500: system.mem_ctrls: recvAtomic: ReadReq 0x29858
 262000: system.mem_ctrls: recvAtomic: ReadReq 0x29860
 262500: system.mem_ctrls: recvAtomic: ReadReq 0x29860
 263000: system.mem_ctrls: recvAtomic: ReadReq 0x29b10
 263000: system.mem_ctrls: recvAtomic: ReadReq 0x9df24
 263500: system.mem_ctrls: recvAtomic: ReadReq 0x29b10
 263500: system.mem_ctrls: recvAtomic: ReadReq 0x9df28
 264000: system.mem_ctrls: recvAtomic: ReadReq 0x29b10
 264500: system.mem_ctrls: recvAtomic: ReadReq 0x29b18
 265500: system.mem_ctrls: recvAtomic: ReadReq 0x29b18
 266500: system.mem_ctrls: recvAtomic: ReadReq 0x29b18
 266500: system.mem_ctrls: recvAtomic: ReadReq 0x9dda4
 267500: system.mem_ctrls: recvAtomic: WriteReq 0x9dda4
 268000: system.mem_ctrls: recvAtomic: ReadReq 0x29b20
 268500: system.mem_ctrls: recvAtomic: ReadReq 0x29b20
 270000: system.mem_ctrls: recvAtomic: ReadReq 0x29850
 271000: system.mem_ctrls: recvAtomic: ReadReq 0x29850
 272000: system.mem_ctrls: recvAtomic: ReadReq 0x29850
 273500: system.mem_ctrls: recvAtomic: ReadReq 0x29858
 273500: system.mem_ctrls: recvAtomic: ReadReq 0x6d1e8
 274000: system.mem_ctrls: recvAtomic: ReadReq 0x29858
 274500: system.mem_ctrls: recvAtomic: ReadReq 0x29860
 275000: system.mem_ctrls: recvAtomic: ReadReq 0x29860
 275500: system.mem_ctrls: recvAtomic: ReadReq 0x29af0
 275500: system.mem_ctrls: recvAtomic: ReadReq 0x9df2c
 276500: system.mem_ctrls: recvAtomic: ReadReq 0x29af0
 276500: system.mem_ctrls: recvAtomic: ReadReq 0x9df30
 277000: system.mem_ctrls: recvAtomic: ReadReq 0x29af0
 277500: system.mem_ctrls: recvAtomic: ReadReq 0x29af8
 278500: system.mem_ctrls: recvAtomic: ReadReq 0x29af8
 279500: system.mem_ctrls: recvAtomic: ReadReq 0x29af8
 280000: system.mem_ctrls: recvAtomic: ReadReq 0x29af8
 280500: system.mem_ctrls: recvAtomic: ReadReq 0x29b00
 282000: system.mem_ctrls: recvAtomic: ReadReq 0x29850
 283000: system.mem_ctrls: recvAtomic: ReadReq 0x29850
 284000: system.mem_ctrls: recvAtomic: ReadReq 0x29850
 285500: system.mem_ctrls: recvAtomic: ReadReq 0x29858
 285500: system.mem_ctrls: recvAtomic: ReadReq 0x6d1ec
 286000: system.mem_ctrls: recvAtomic: ReadReq 0x29858
 286500: system.mem_ctrls: recvAtomic: ReadReq 0x29860
 287000: system.mem_ctrls: recvAtomic: ReadReq 0x29860
 287500: system.mem_ctrls: recvAtomic: ReadReq 0x29ad0
 287500: system.mem_ctrls: recvAtomic: ReadReq 0x9df34
 288500: system.mem_ctrls: recvAtomic: ReadReq 0x29ad0
 288500: system.mem_ctrls: recvAtomic: ReadReq 0x9df38
 289000: system.mem_ctrls: recvAtomic: ReadReq 0x29ad0
 289500: system.mem_ctrls: recvAtomic: ReadReq 0x29ad8
 290500: system.mem_ctrls: recvAtomic: ReadReq 0x29ad8
 291500: system.mem_ctrls: recvAtomic: ReadReq 0x29ad8
 292000: system.mem_ctrls: recvAtomic: ReadReq 0x29ad8
 292500: system.mem_ctrls: recvAtomic: ReadReq 0x29ae0
 294000: system.mem_ctrls: recvAtomic: ReadReq 0x29850
 295000: system.mem_ctrls: recvAtomic: ReadReq 0x29850
 296000: system.mem_ctrls: recvAtomic: ReadReq 0x29850
 297500: system.mem_ctrls: recvAtomic: ReadReq 0x29858
 297500: system.mem_ctrls: recvAtomic: ReadReq 0x6d210
 298000: system.mem_ctrls: recvAtomic: ReadReq 0x29858
 298500: system.mem_ctrls: recvAtomic: ReadReq 0x29860
 299000: system.mem_ctrls: recvAtomic: ReadReq 0x29860
 299500: system.mem_ctrls: recvAtomic: ReadReq 0x29a08
 299500: system.mem_ctrls: recvAtomic: ReadReq 0x9df3c
 300000: system.mem_ctrls: recvAtomic: ReadReq 0x29a08
 301000: system.mem_ctrls: recvAtomic: ReadReq 0x29a08
 301500: system.mem_ctrls: recvAtomic: ReadReq 0x29a10
 302000: system.mem_ctrls: recvAtomic: WriteReq 0x9ddee
 302500: system.mem_ctrls: recvAtomic: ReadReq 0x29a10
 303000: system.mem_ctrls: recvAtomic: ReadReq 0x29a18
 303500: system.mem_ctrls: recvAtomic: WriteReq 0x9dde4
 304000: system.mem_ctrls: recvAtomic: ReadReq 0x29a20
 304000: system.mem_ctrls: recvAtomic: WriteReq 0x9dde0
 304500: system.mem_ctrls: recvAtomic: ReadReq 0x29a20
 304500: system.mem_ctrls: recvAtomic: ReadReq 0x9df40
 305000: system.mem_ctrls: recvAtomic: ReadReq 0x29a20
 305500: system.mem_ctrls: recvAtomic: ReadReq 0x29a28
 307000: system.mem_ctrls: recvAtomic: ReadReq 0x29850
 308000: system.mem_ctrls: recvAtomic: ReadReq 0x29850
 309000: system.mem_ctrls: recvAtomic: ReadReq 0x29850
 310500: system.mem_ctrls: recvAtomic: ReadReq 0x29858
 310500: system.mem_ctrls: recvAtomic: ReadReq 0x6d218
 311000: system.mem_ctrls: recvAtomic: ReadReq 0x29858
 311500: system.mem_ctrls: recvAtomic: ReadReq 0x29860
 312000: system.mem_ctrls: recvAtomic: ReadReq 0x29860
 312500: system.mem_ctrls: recvAtomic: ReadReq 0x29868
 312500: system.mem_ctrls: recvAtomic: ReadReq 0x9df44
 313000: system.mem_ctrls: recvAtomic: ReadReq 0x29868
 313500: system.mem_ctrls: recvAtomic: WriteReq 0x9ddef
 314000: system.mem_ctrls: recvAtomic: ReadReq 0x29870
 314000: system.mem_ctrls: recvAtomic: WriteReq 0x9dde8
 314500: system.mem_ctrls: recvAtomic: ReadReq 0x29870
 315000: system.mem_ctrls: recvAtomic: ReadReq 0x29878
 315000: system.mem_ctrls: recvAtomic: ReadReq 0x9df48
 315500: system.mem_ctrls: recvAtomic: ReadReq 0x29878
 316500: system.mem_ctrls: recvAtomic: ReadReq 0x29878
 317000: system.mem_ctrls: recvAtomic: ReadReq 0x29880
 318500: system.mem_ctrls: recvAtomic: ReadReq 0x29850
 319500: system.mem_ctrls: recvAtomic: ReadReq 0x29850
 320500: system.mem_ctrls: recvAtomic: ReadReq 0x29850
 322000: system.mem_ctrls: recvAtomic: ReadReq 0x29858
 322000: system.mem_ctrls: recvAtomic: ReadReq 0x6d230
 322500: system.mem_ctrls: recvAtomic: ReadReq 0x29858
 323000: system.mem_ctrls: recvAtomic: ReadReq 0x29860
 323500: system.mem_ctrls: recvAtomic: ReadReq 0x29860
 324000: system.mem_ctrls: recvAtomic: ReadReq 0x29878
 324000: system.mem_ctrls: recvAtomic: ReadReq 0x9df50
 324500: system.mem_ctrls: recvAtomic: ReadReq 0x29878
 325500: system.mem_ctrls: recvAtomic: ReadReq 0x29878
 326000: system.mem_ctrls: recvAtomic: ReadReq 0x29880
 327500: system.mem_ctrls: recvAtomic: ReadReq 0x29850
 328500: system.mem_ctrls: recvAtomic: ReadReq 0x29850
 329500: system.mem_ctrls: recvAtomic: ReadReq 0x29850
 331000: system.mem_ctrls: recvAtomic: ReadReq 0x29858
 331000: system.mem_ctrls: recvAtomic: ReadReq 0x6d1f0
 331500: system.mem_ctrls: recvAtomic: ReadReq 0x29858
 332000: system.mem_ctrls: recvAtomic: ReadReq 0x29860
 332500: system.mem_ctrls: recvAtomic: ReadReq 0x29860
 333000: system.mem_ctrls: recvAtomic: ReadReq 0x29aa8
 333000: system.mem_ctrls: recvAtomic: ReadReq 0x9df54
 333500: system.mem_ctrls: recvAtomic: ReadReq 0x29aa8
 334500: system.mem_ctrls: recvAtomic: ReadReq 0x29aa8
 335000: system.mem_ctrls: recvAtomic: ReadReq 0x29ab0
 335500: system.mem_ctrls: recvAtomic: WriteReq 0x9ddd2
 336000: system.mem_ctrls: recvAtomic: ReadReq 0x29ab0
 336000: system.mem_ctrls: recvAtomic: WriteReq 0x9ddbc
 336500: system.mem_ctrls: recvAtomic: ReadReq 0x29ab0
 337000: system.mem_ctrls: recvAtomic: ReadReq 0x29ab8
 337000: system.mem_ctrls: recvAtomic: ReadReq 0x9df58
 337500: system.mem_ctrls: recvAtomic: ReadReq 0x29ab8
 338000: system.mem_ctrls: recvAtomic: ReadReq 0x29ab8
 338500: system.mem_ctrls: recvAtomic: ReadReq 0x29ac0
 340000: system.mem_ctrls: recvAtomic: ReadReq 0x29ac0
 341500: system.mem_ctrls: recvAtomic: ReadReq 0x29888
 341500: system.mem_ctrls: recvAtomic: ReadReq 0x9ddae
 342500: system.mem_ctrls: recvAtomic: ReadReq 0x29888
 343000: system.mem_ctrls: recvAtomic: ReadReq 0x29890
 343000: system.mem_ctrls: recvAtomic: ReadReq 0x9dda4
 343500: system.mem_ctrls: recvAtomic: ReadReq 0x29890
 344000: system.mem_ctrls: recvAtomic: ReadReq 0x29890
 344500: system.mem_ctrls: recvAtomic: ReadReq 0x29890
 345000: system.mem_ctrls: recvAtomic: ReadReq 0x29898
 346500: system.mem_ctrls: recvAtomic: ReadReq 0x29bd0
 346500: system.mem_ctrls: recvAtomic: ReadReq 0x9dda8
 347000: system.mem_ctrls: recvAtomic: ReadReq 0x29bd0
 347500: system.mem_ctrls: recvAtomic: ReadReq 0x29bd8
 347500: system.mem_ctrls: recvAtomic: WriteReq 0x9b990
 348000: system.mem_ctrls: recvAtomic: ReadReq 0x29bd8
 349500: system.mem_ctrls: recvAtomic: ReadReq 0x29898
 350000: system.mem_ctrls: recvAtomic: ReadReq 0x9ddaf
 351000: system.mem_ctrls: recvAtomic: ReadReq 0x298a0
 352500: system.mem_ctrls: recvAtomic: ReadReq 0x298a0
 352500: system.mem_ctrls: recvAtomic: ReadReq 0x9ddb0
 353000: system.mem_ctrls: recvAtomic: ReadReq 0x298a0
 353500: system.mem_ctrls: recvAtomic: ReadReq 0x298a8
 353500: system.mem_ctrls: recvAtomic: WriteReq 0x9cae0
 354000: system.mem_ctrls: recvAtomic: ReadReq 0x298a8
 354500: system.mem_ctrls: recvAtomic: ReadReq 0x298b0
 355000: system.mem_ctrls: recvAtomic: ReadReq 0x9ddd0
 356000: system.mem_ctrls: recvAtomic: ReadReq 0x298b0
 357500: system.mem_ctrls: recvAtomic: ReadReq 0x298b0
 357500: system.mem_ctrls: recvAtomic: ReadReq 0x9ddb4
 358000: system.mem_ctrls: recvAtomic: ReadReq 0x298b0
 358500: system.mem_ctrls: recvAtomic: ReadReq 0x298b8
 358500: system.mem_ctrls: recvAtomic: WriteReq 0x9cb0c
 359000: system.mem_ctrls: recvAtomic: ReadReq 0x298b8
 359500: system.mem_ctrls: recvAtomic: ReadReq 0x298c0
 360000: system.mem_ctrls: recvAtomic: ReadReq 0x9ddd1
 361000: system.mem_ctrls: recvAtomic: ReadReq 0x298c0
 362500: system.mem_ctrls: recvAtomic: ReadReq 0x298c0
 362500: system.mem_ctrls: recvAtomic: ReadReq 0x9ddb8
 363000: system.mem_ctrls: recvAtomic: ReadReq 0x298c8
 363000: system.mem_ctrls: recvAtomic: WriteReq 0x9cb08
 363500: system.mem_ctrls: recvAtomic: ReadReq 0x298c8
 364000: system.mem_ctrls: recvAtomic: ReadReq 0x298d0
 364500: system.mem_ctrls: recvAtomic: ReadReq 0x9ddd2
 365500: system.mem_ctrls: recvAtomic: ReadReq 0x298d0
 367000: system.mem_ctrls: recvAtomic: ReadReq 0x298d0
 367500: system.mem_ctrls: recvAtomic: ReadReq 0x298d8
 367500: system.mem_ctrls: recvAtomic: ReadReq 0x9ddbc
 368000: system.mem_ctrls: recvAtomic: ReadReq 0x298d8
 368000: system.mem_ctrls: recvAtomic: WriteReq 0x9cc0c
 368500: system.mem_ctrls: recvAtomic: ReadReq 0x298d8
 369000: system.mem_ctrls: recvAtomic: ReadReq 0x298e0
 369500: system.mem_ctrls: recvAtomic: ReadReq 0x9ddd3
 370500: system.mem_ctrls: recvAtomic: ReadReq 0x298e0
 372000: system.mem_ctrls: recvAtomic: ReadReq 0x298e0
 372500: system.mem_ctrls: recvAtomic: ReadReq 0x298e8
 372500: system.mem_ctrls: recvAtomic: ReadReq 0x9ddc0
 373000: system.mem_ctrls: recvAtomic: ReadReq 0x298e8
 373000: system.mem_ctrls: recvAtomic: ReadReq 0x9ddc4
 373500: system.mem_ctrls: recvAtomic: ReadReq 0x298e8
 374000: system.mem_ctrls: recvAtomic: ReadReq 0x298f0
 374000: system.mem_ctrls: recvAtomic: WriteReq 0x9cb00
 374500: system.mem_ctrls: recvAtomic: ReadReq 0x298f0
 375000: system.mem_ctrls: recvAtomic: ReadReq 0x298f8
 375000: system.mem_ctrls: recvAtomic: WriteReq 0x9cb04
 375500: system.mem_ctrls: recvAtomic: ReadReq 0x298f8
 376000: system.mem_ctrls: recvAtomic: ReadReq 0x9ddd6
 377000: system.mem_ctrls: recvAtomic: ReadReq 0x298f8
 377500: system.mem_ctrls: recvAtomic: ReadReq 0x29900
 379000: system.mem_ctrls: recvAtomic: ReadReq 0x29910
 379500: system.mem_ctrls: recvAtomic: ReadReq 0x29918
 380000: system.mem_ctrls: recvAtomic: ReadReq 0x9ddd7
 381000: system.mem_ctrls: recvAtomic: ReadReq 0x29918
 382500: system.mem_ctrls: recvAtomic: ReadReq 0x29928
 383000: system.mem_ctrls: recvAtomic: ReadReq 0x9ddec
 384000: system.mem_ctrls: recvAtomic: ReadReq 0x29928
 385500: system.mem_ctrls: recvAtomic: ReadReq 0x29928
 386000: system.mem_ctrls: recvAtomic: ReadReq 0x29930
 386000: system.mem_ctrls: recvAtomic: ReadReq 0x9ddd8
 386500: system.mem_ctrls: recvAtomic: ReadReq 0x29930
 387000: system.mem_ctrls: recvAtomic: ReadReq 0x29938
 387000: system.mem_ctrls: recvAtomic: WriteReq 0x9b9c0
 387500: system.mem_ctrls: recvAtomic: ReadReq 0x29938
 388000: system.mem_ctrls: recvAtomic: ReadReq 0x9dded
 389000: system.mem_ctrls: recvAtomic: ReadReq 0x29938
 390500: system.mem_ctrls: recvAtomic: ReadReq 0x29940
 390500: system.mem_ctrls: recvAtomic: ReadReq 0x9dddc
 391000: system.mem_ctrls: recvAtomic: ReadReq 0x29940
 391500: system.mem_ctrls: recvAtomic: ReadReq 0x29948
 391500: system.mem_ctrls: recvAtomic: WriteReq 0x9cae8
 392000: system.mem_ctrls: recvAtomic: ReadReq 0x29948
 392500: system.mem_ctrls: recvAtomic: ReadReq 0x9ddee
 393500: system.mem_ctrls: recvAtomic: ReadReq 0x29948
 394000: system.mem_ctrls: recvAtomic: ReadReq 0x29950
 395500: system.mem_ctrls: recvAtomic: ReadReq 0x29950
 395500: system.mem_ctrls: recvAtomic: ReadReq 0x9ddf0
 396000: system.mem_ctrls: recvAtomic: ReadReq 0x29950
 396500: system.mem_ctrls: recvAtomic: ReadReq 0x29958
 396500: system.mem_ctrls: recvAtomic: ReadReq 0x9dde0
 397000: system.mem_ctrls: recvAtomic: ReadReq 0x29958
 397000: system.mem_ctrls: recvAtomic: WriteReq 0x9ada0
 397500: system.mem_ctrls: recvAtomic: ReadReq 0x29958
 397500: system.mem_ctrls: recvAtomic: ReadReq 0x9ddf4
 398000: system.mem_ctrls: recvAtomic: ReadReq 0x29958
 398500: system.mem_ctrls: recvAtomic: ReadReq 0x29960
 398500: system.mem_ctrls: recvAtomic: ReadReq 0x9dde4
 399000: system.mem_ctrls: recvAtomic: ReadReq 0x29960
 399000: system.mem_ctrls: recvAtomic: WriteReq 0x9cc14
 399500: system.mem_ctrls: recvAtomic: ReadReq 0x29960
 400000: system.mem_ctrls: recvAtomic: ReadReq 0x29968
 400500: system.mem_ctrls: recvAtomic: ReadReq 0x9ddef
 401500: system.mem_ctrls: recvAtomic: ReadReq 0x29968
 403000: system.mem_ctrls: recvAtomic: ReadReq 0x29968
 403000: system.mem_ctrls: recvAtomic: ReadReq 0x9dde8
 403500: system.mem_ctrls: recvAtomic: ReadReq 0x29970
 403500: system.mem_ctrls: recvAtomic: WriteReq 0x9ad80
 404000: system.mem_ctrls: recvAtomic: ReadReq 0x29970
 404500: system.mem_ctrls: recvAtomic: ReadReq 0x29978
 405500: system.mem_ctrls: recvAtomic: ReadReq 0x29978
 407000: system.mem_ctrls: recvAtomic: ReadReq 0x29990
 408000: system.mem_ctrls: recvAtomic: ReadReq 0x29990
 408000: system.mem_ctrls: recvAtomic: ReadReq 0x9ddfc
 409500: system.mem_ctrls: recvAtomic: ReadReq 0x29990
 409500: system.mem_ctrls: recvAtomic: ReadReq 0x9de00
 411000: system.mem_ctrls: recvAtomic: ReadReq 0x29990
 411000: system.mem_ctrls: recvAtomic: ReadReq 0x9de04
 412500: system.mem_ctrls: recvAtomic: ReadReq 0x29998
 412500: system.mem_ctrls: recvAtomic: ReadReq 0x9de08
 414000: system.mem_ctrls: recvAtomic: ReadReq 0x29998
 414000: system.mem_ctrls: recvAtomic: ReadReq 0x9de0c
 415500: system.mem_ctrls: recvAtomic: ReadReq 0x21f0
 415500: system.mem_ctrls: recvAtomic: ReadReq 0x9de2c
 416000: system.mem_ctrls: recvAtomic: ReadReq 0x21f0
 416500: system.mem_ctrls: recvAtomic: ReadReq 0x21f8
 417500: system.mem_ctrls: recvAtomic: ReadReq 0x21f8
 418000: system.mem_ctrls: recvAtomic: ReadReq 0x21f8
 418500: system.mem_ctrls: recvAtomic: ReadReq 0x2200
 419000: system.mem_ctrls: recvAtomic: ReadReq 0x9cb0c
 420000: system.mem_ctrls: recvAtomic: ReadReq 0x2200
 421500: system.mem_ctrls: recvAtomic: ReadReq 0x2230
 421500: system.mem_ctrls: recvAtomic: ReadReq 0x9de2c
 422000: system.mem_ctrls: recvAtomic: ReadReq 0x2230
 422500: system.mem_ctrls: recvAtomic: ReadReq 0x2238
 423500: system.mem_ctrls: recvAtomic: WriteReq 0x9de1c
 425000: system.mem_ctrls: recvAtomic: ReadReq 0x2a8a0
 425000: system.mem_ctrls: recvAtomic: WriteReq 0x9de18
 426000: system.mem_ctrls: recvAtomic: ReadReq 0x2a8a0
 426000: system.mem_ctrls: recvAtomic: WriteReq 0x9de14
 427000: system.mem_ctrls: recvAtomic: ReadReq 0x2a8a0
 428000: system.mem_ctrls: recvAtomic: WriteReq 0x9de10
 429500: system.mem_ctrls: recvAtomic: ReadReq 0x1c30
 429500: system.mem_ctrls: recvAtomic: ReadReq 0x9de10
 430000: system.mem_ctrls: recvAtomic: ReadReq 0x1c30
 430000: system.mem_ctrls: recvAtomic: ReadReq 0x9de10
 431500: system.mem_ctrls: recvAtomic: ReadReq 0x2a8a0
 432000: system.mem_ctrls: recvAtomic: ReadReq 0x2a8a8
 433000: system.mem_ctrls: recvAtomic: ReadReq 0x2a8a8
 434000: system.mem_ctrls: recvAtomic: ReadReq 0x2a8b0
 434000: system.mem_ctrls: recvAtomic: ReadReq 0x9cc14
 434500: system.mem_ctrls: recvAtomic: ReadReq 0x2a8b0
 435000: system.mem_ctrls: recvAtomic: ReadReq 0x2a8b8
 436500: system.mem_ctrls: recvAtomic: ReadReq 0x2a8b8
 437500: system.mem_ctrls: recvAtomic: ReadReq 0x2a8b8
 437500: system.mem_ctrls: recvAtomic: ReadReq 0x9de14
 439000: system.mem_ctrls: recvAtomic: ReadReq 0x2a8b8
 439000: system.mem_ctrls: recvAtomic: ReadReq 0x9de18
 440500: system.mem_ctrls: recvAtomic: ReadReq 0x2a8b8
 440500: system.mem_ctrls: recvAtomic: ReadReq 0x9de1c
 442000: system.mem_ctrls: recvAtomic: ReadReq 0x2238
 442500: system.mem_ctrls: recvAtomic: ReadReq 0x2240
 443000: system.mem_ctrls: recvAtomic: ReadReq 0x2240
 444000: system.mem_ctrls: recvAtomic: ReadReq 0x2240
 444000: system.mem_ctrls: recvAtomic: ReadReq 0x9cac0
 444500: system.mem_ctrls: recvAtomic: WriteReq 0x9de10
 445500: system.mem_ctrls: recvAtomic: ReadReq 0x2248
 446500: system.mem_ctrls: recvAtomic: WriteReq 0x9de0c
 448000: system.mem_ctrls: recvAtomic: ReadReq 0x29010
 449000: system.mem_ctrls: recvAtomic: WriteReq 0x9de08
 450500: system.mem_ctrls: recvAtomic: ReadReq 0x1db8
 451000: system.mem_ctrls: recvAtomic: ReadReq 0x1dc0
 451000: system.mem_ctrls: recvAtomic: ReadReq 0x9de08
 451500: system.mem_ctrls: recvAtomic: ReadReq 0x1dc0
 451500: system.mem_ctrls: recvAtomic: ReadReq 0x9de08
 453000: system.mem_ctrls: recvAtomic: ReadReq 0x29010
 453500: system.mem_ctrls: recvAtomic: ReadReq 0x29018
 454500: system.mem_ctrls: recvAtomic: ReadReq 0x29018
 454500: system.mem_ctrls: recvAtomic: WriteReq 0x9de08
 455500: system.mem_ctrls: recvAtomic: ReadReq 0x29018
 455500: system.mem_ctrls: recvAtomic: WriteReq 0x9de04
 456500: system.mem_ctrls: recvAtomic: ReadReq 0x29018
 456500: system.mem_ctrls: recvAtomic: WriteReq 0x9de00
 457500: system.mem_ctrls: recvAtomic: ReadReq 0x29018
 457500: system.mem_ctrls: recvAtomic: WriteReq 0x9ddfc
 458500: system.mem_ctrls: recvAtomic: ReadReq 0x29018
 459000: system.mem_ctrls: recvAtomic: ReadReq 0x29020
 460000: system.mem_ctrls: recvAtomic: ReadReq 0x29020
 460000: system.mem_ctrls: recvAtomic: WriteReq 0x9dda4
 460500: system.mem_ctrls: recvAtomic: ReadReq 0x29020
 461000: system.mem_ctrls: recvAtomic: ReadReq 0x29028
 461500: system.mem_ctrls: recvAtomic: ReadReq 0x29028
 461500: system.mem_ctrls: recvAtomic: WriteReq 0x9ddb4
 462000: system.mem_ctrls: recvAtomic: ReadReq 0x29028
 462500: system.mem_ctrls: recvAtomic: ReadReq 0x29030
 462500: system.mem_ctrls: recvAtomic: ReadReq 0x9ada0
 463000: system.mem_ctrls: recvAtomic: ReadReq 0x29030
 463500: system.mem_ctrls: recvAtomic: ReadReq 0x29030
 464000: system.mem_ctrls: recvAtomic: ReadReq 0x29038
 465500: system.mem_ctrls: recvAtomic: ReadReq 0x29038
 466000: system.mem_ctrls: recvAtomic: ReadReq 0x29038
 466500: system.mem_ctrls: recvAtomic: ReadReq 0x29040
 466500: system.mem_ctrls: recvAtomic: WriteReq 0x9ddb8
 467000: system.mem_ctrls: recvAtomic: ReadReq 0x29040
 467500: system.mem_ctrls: recvAtomic: ReadReq 0x29040
 468000: system.mem_ctrls: recvAtomic: ReadReq 0x29048
 468000: system.mem_ctrls: recvAtomic: ReadReq 0x9de10
 468500: system.mem_ctrls: recvAtomic: ReadReq 0x29048
 469000: system.mem_ctrls: recvAtomic: ReadReq 0x29050
 469500: system.mem_ctrls: recvAtomic: ReadReq 0x29050
 471000: system.mem_ctrls: recvAtomic: ReadReq 0x29050
 471500: system.mem_ctrls: recvAtomic: ReadReq 0x29058
 471500: system.mem_ctrls: recvAtomic: ReadReq 0x9de10
 472000: system.mem_ctrls: recvAtomic: ReadReq 0x29058
 472000: system.mem_ctrls: recvAtomic: ReadReq 0x9debc
 472500: system.mem_ctrls: recvAtomic: ReadReq 0x29058
 472500: system.mem_ctrls: recvAtomic: WriteReq 0x9dd9c
 473000: system.mem_ctrls: recvAtomic: ReadReq 0x29060
 473500: system.mem_ctrls: recvAtomic: ReadReq 0x29060
 475000: system.mem_ctrls: recvAtomic: ReadReq 0x290b8
 476000: system.mem_ctrls: recvAtomic: ReadReq 0x290b8
 476000: system.mem_ctrls: recvAtomic: ReadReq 0x9ddfc
 477500: system.mem_ctrls: recvAtomic: ReadReq 0x290b8
 477500: system.mem_ctrls: recvAtomic: ReadReq 0x9de00
 479000: system.mem_ctrls: recvAtomic: ReadReq 0x290b8
 479000: system.mem_ctrls: recvAtomic: ReadReq 0x9de04
 480500: system.mem_ctrls: recvAtomic: ReadReq 0x290b8
 480500: system.mem_ctrls: recvAtomic: ReadReq 0x9de08
 482000: system.mem_ctrls: recvAtomic: ReadReq 0x290b8
 482000: system.mem_ctrls: recvAtomic: ReadReq 0x9de0c
 483500: system.mem_ctrls: recvAtomic: ReadReq 0x2248
 484000: system.mem_ctrls: recvAtomic: ReadReq 0x2250
 484500: system.mem_ctrls: recvAtomic: ReadReq 0x2250
 485500: system.mem_ctrls: recvAtomic: ReadReq 0x2250
 486000: system.mem_ctrls: recvAtomic: ReadReq 0x2258
 486500: system.mem_ctrls: recvAtomic: WriteReq 0x9de30
 487000: system.mem_ctrls: recvAtomic: ReadReq 0x2260
 487500: system.mem_ctrls: recvAtomic: ReadReq 0x2260
 488000: system.mem_ctrls: recvAtomic: ReadReq 0x2268
 488500: system.mem_ctrls: recvAtomic: WriteReq 0x9de34
 489000: system.mem_ctrls: recvAtomic: ReadReq 0x2268
 489000: system.mem_ctrls: recvAtomic: WriteReq 0x9cbac
 489500: system.mem_ctrls: recvAtomic: ReadReq 0x2268
 490000: system.mem_ctrls: recvAtomic: ReadReq 0x2270
 490500: system.mem_ctrls: recvAtomic: WriteReq 0x9de38
 491000: system.mem_ctrls: recvAtomic: ReadReq 0x2270
 491500: system.mem_ctrls: recvAtomic: ReadReq 0x2278
 492500: system.mem_ctrls: recvAtomic: ReadReq 0x2278
 493000: system.mem_ctrls: recvAtomic: ReadReq 0x2280
 494500: system.mem_ctrls: recvAtomic: ReadReq 0x23e8
 495500: system.mem_ctrls: recvAtomic: ReadReq 0x23e8
 496000: system.mem_ctrls: recvAtomic: ReadReq 0x23f0
 497500: system.mem_ctrls: recvAtomic: ReadReq 0x2630
 498000: system.mem_ctrls: recvAtomic: ReadReq 0x2638
 499000: system.mem_ctrls: recvAtomic: ReadReq 0x2638
 500000: system.mem_ctrls: recvAtomic: ReadReq 0x2638
 500500: system.mem_ctrls: recvAtomic: ReadReq 0x2640
 501500: system.mem_ctrls: recvAtomic: ReadReq 0x2640
 502500: system.mem_ctrls: recvAtomic: ReadReq 0x2648
 503000: system.mem_ctrls: recvAtomic: ReadReq 0x2648
 504500: system.mem_ctrls: recvAtomic: ReadReq 0x2298
 505500: system.mem_ctrls: recvAtomic: ReadReq 0x2298
 506000: system.mem_ctrls: recvAtomic: ReadReq 0x2298
 506500: system.mem_ctrls: recvAtomic: ReadReq 0x22a0
 507000: system.mem_ctrls: recvAtomic: ReadReq 0x22a0
 507500: system.mem_ctrls: recvAtomic: WriteReq 0x9de10
 508500: system.mem_ctrls: recvAtomic: ReadReq 0x22a0
 509000: system.mem_ctrls: recvAtomic: ReadReq 0x22a8
 510000: system.mem_ctrls: recvAtomic: WriteReq 0x9de0c
 511500: system.mem_ctrls: recvAtomic: ReadReq 0x1dd0
 511500: system.mem_ctrls: recvAtomic: WriteReq 0x9de08
 512500: system.mem_ctrls: recvAtomic: ReadReq 0x1dd0
 512500: system.mem_ctrls: recvAtomic: WriteReq 0x9de04
 513500: system.mem_ctrls: recvAtomic: ReadReq 0x1dd0
 513500: system.mem_ctrls: recvAtomic: WriteReq 0x9de00
 514500: system.mem_ctrls: recvAtomic: ReadReq 0x1dd0
 515500: system.mem_ctrls: recvAtomic: WriteReq 0x9ddfc
 517000: system.mem_ctrls: recvAtomic: ReadReq 0x2810
 517000: system.mem_ctrls: recvAtomic: ReadReq 0x9ddfc
 517500: system.mem_ctrls: recvAtomic: ReadReq 0x2810
 517500: system.mem_ctrls: recvAtomic: ReadReq 0x9ddfc
 519000: system.mem_ctrls: recvAtomic: ReadReq 0x1dd8
 520000: system.mem_ctrls: recvAtomic: ReadReq 0x1dd8
 520000: system.mem_ctrls: recvAtomic: WriteReq 0x9ddfc
 521000: system.mem_ctrls: recvAtomic: ReadReq 0x1dd8
 521500: system.mem_ctrls: recvAtomic: ReadReq 0x1de0
 522500: system.mem_ctrls: recvAtomic: ReadReq 0x1de0
 522500: system.mem_ctrls: recvAtomic: WriteReq 0x9dcf8
 523000: system.mem_ctrls: recvAtomic: ReadReq 0x1de8
 523500: system.mem_ctrls: recvAtomic: ReadReq 0x1de8
 525000: system.mem_ctrls: recvAtomic: ReadReq 0x1fa0
 525500: system.mem_ctrls: recvAtomic: ReadReq 0x1fa8
 526000: system.mem_ctrls: recvAtomic: ReadReq 0x1fa8
 527500: system.mem_ctrls: recvAtomic: ReadReq 0x1e48
 528000: system.mem_ctrls: recvAtomic: ReadReq 0x9cbac
 529000: system.mem_ctrls: recvAtomic: ReadReq 0x1e50
 530500: system.mem_ctrls: recvAtomic: ReadReq 0x1e50
 531000: system.mem_ctrls: recvAtomic: ReadReq 0x1e50
 531500: system.mem_ctrls: recvAtomic: ReadReq 0x1e58
 532000: system.mem_ctrls: recvAtomic: ReadReq 0x1e58
 532500: system.mem_ctrls: recvAtomic: ReadReq 0x1e58
 532500: system.mem_ctrls: recvAtomic: WriteReq 0x9cb50
 533000: system.mem_ctrls: recvAtomic: ReadReq 0x1e58
 533500: system.mem_ctrls: recvAtomic: ReadReq 0x1e60
 533500: system.mem_ctrls: recvAtomic: WriteReq 0x9cb54
 534000: system.mem_ctrls: recvAtomic: ReadReq 0x1e60
 534000: system.mem_ctrls: recvAtomic: WriteReq 0x9cb58
 534500: system.mem_ctrls: recvAtomic: ReadReq 0x1e60
 534500: system.mem_ctrls: recvAtomic: WriteReq 0x9cb5c
 535000: system.mem_ctrls: recvAtomic: ReadReq 0x1e60
 535500: system.mem_ctrls: recvAtomic: ReadReq 0x1e68
 536000: system.mem_ctrls: recvAtomic: ReadReq 0x9cbac
 537000: system.mem_ctrls: recvAtomic: ReadReq 0x1e68
 538500: system.mem_ctrls: recvAtomic: ReadReq 0x1e80
 538500: system.mem_ctrls: recvAtomic: ReadReq 0x9cb48
 539000: system.mem_ctrls: recvAtomic: ReadReq 0x1e88
 540000: system.mem_ctrls: recvAtomic: ReadReq 0x1e88
 540500: system.mem_ctrls: recvAtomic: ReadReq 0x1e90
 542000: system.mem_ctrls: recvAtomic: ReadReq 0x1f80
 542500: system.mem_ctrls: recvAtomic: ReadReq 0x1f88
 543500: system.mem_ctrls: recvAtomic: ReadReq 0x1f88
 543500: system.mem_ctrls: recvAtomic: ReadReq 0x9ddfc
 545000: system.mem_ctrls: recvAtomic: ReadReq 0x1f88
 545000: system.mem_ctrls: recvAtomic: ReadReq 0x9de00
 546500: system.mem_ctrls: recvAtomic: ReadReq 0x1f88
 546500: system.mem_ctrls: recvAtomic: ReadReq 0x9de04
 548000: system.mem_ctrls: recvAtomic: ReadReq 0x1f88
 548000: system.mem_ctrls: recvAtomic: ReadReq 0x9de08
 549500: system.mem_ctrls: recvAtomic: ReadReq 0x1f88
 549500: system.mem_ctrls: recvAtomic: ReadReq 0x9de0c
 551000: system.mem_ctrls: recvAtomic: ReadReq 0x22a8
 552000: system.mem_ctrls: recvAtomic: ReadReq 0x22a8
 552500: system.mem_ctrls: recvAtomic: ReadReq 0x22b0
 553000: system.mem_ctrls: recvAtomic: ReadReq 0x22b0
 553000: system.mem_ctrls: recvAtomic: ReadReq 0x9de2c
 553500: system.mem_ctrls: recvAtomic: ReadReq 0x22b0
 554000: system.mem_ctrls: recvAtomic: ReadReq 0x22b8
 554500: system.mem_ctrls: recvAtomic: ReadReq 0x22b8
 554500: system.mem_ctrls: recvAtomic: ReadReq 0x9cb4c
 555000: system.mem_ctrls: recvAtomic: ReadReq 0x22b8
 555500: system.mem_ctrls: recvAtomic: ReadReq 0x22c0
 556500: system.mem_ctrls: recvAtomic: ReadReq 0x22c0
 558000: system.mem_ctrls: recvAtomic: ReadReq 0x22c0
 558500: system.mem_ctrls: recvAtomic: ReadReq 0x22c8
 559500: system.mem_ctrls: recvAtomic: ReadReq 0x22c8
 561000: system.mem_ctrls: recvAtomic: ReadReq 0x22d8
 561000: system.mem_ctrls: recvAtomic: ReadReq 0x9de2c
 561500: system.mem_ctrls: recvAtomic: ReadReq 0x22d8
 562000: system.mem_ctrls: recvAtomic: ReadReq 0x22e0
 562000: system.mem_ctrls: recvAtomic: ReadReq 0x9de30
 562500: system.mem_ctrls: recvAtomic: ReadReq 0x22e0
 563000: system.mem_ctrls: recvAtomic: ReadReq 0x22e8
 563000: system.mem_ctrls: recvAtomic: WriteReq 0x9cbb0
 563500: system.mem_ctrls: recvAtomic: ReadReq 0x22e8
 563500: system.mem_ctrls: recvAtomic: ReadReq 0x9de34
 564000: system.mem_ctrls: recvAtomic: ReadReq 0x22e8
 564500: system.mem_ctrls: recvAtomic: ReadReq 0x22f0
 564500: system.mem_ctrls: recvAtomic: WriteReq 0x9cba8
 565000: system.mem_ctrls: recvAtomic: ReadReq 0x22f0
 565000: system.mem_ctrls: recvAtomic: WriteReq 0x9cbb4
 565500: system.mem_ctrls: recvAtomic: ReadReq 0x22f0
 566000: system.mem_ctrls: recvAtomic: ReadReq 0x22f8
 566000: system.mem_ctrls: recvAtomic: ReadReq 0x9de38
 566500: system.mem_ctrls: recvAtomic: ReadReq 0x22f8
 566500: system.mem_ctrls: recvAtomic: WriteReq 0x9cbb8
 567000: system.mem_ctrls: recvAtomic: ReadReq 0x22f8
 567000: system.mem_ctrls: recvAtomic: WriteReq 0x9de1c
 568000: system.mem_ctrls: recvAtomic: ReadReq 0x22f8
 568500: system.mem_ctrls: recvAtomic: ReadReq 0x2300
 569000: system.mem_ctrls: recvAtomic: ReadReq 0x2300
 569000: system.mem_ctrls: recvAtomic: WriteReq 0x9de18
 570000: system.mem_ctrls: recvAtomic: ReadReq 0x2300
 570500: system.mem_ctrls: recvAtomic: ReadReq 0x2308
 570500: system.mem_ctrls: recvAtomic: WriteReq 0x9de14
 571500: system.mem_ctrls: recvAtomic: ReadReq 0x2308
 572000: system.mem_ctrls: recvAtomic: WriteReq 0x9de10
 573000: system.mem_ctrls: recvAtomic: ReadReq 0x2308
 574000: system.mem_ctrls: recvAtomic: WriteReq 0x9de0c
 575500: system.mem_ctrls: recvAtomic: ReadReq 0x296a0
 576500: system.mem_ctrls: recvAtomic: WriteReq 0x9de08
 578000: system.mem_ctrls: recvAtomic: ReadReq 0x9810
 578500: system.mem_ctrls: recvAtomic: ReadReq 0x9818
 578500: system.mem_ctrls: recvAtomic: ReadReq 0x9de08
 579000: system.mem_ctrls: recvAtomic: ReadReq 0x9818
 579000: system.mem_ctrls: recvAtomic: ReadReq 0x9de08
 580500: system.mem_ctrls: recvAtomic: ReadReq 0x296a0
 581000: system.mem_ctrls: recvAtomic: ReadReq 0x296a8
 582000: system.mem_ctrls: recvAtomic: ReadReq 0x296a8
 582000: system.mem_ctrls: recvAtomic: WriteReq 0x9de08
 583000: system.mem_ctrls: recvAtomic: ReadReq 0x296a8
 583000: system.mem_ctrls: recvAtomic: WriteReq 0x9de04
 584000: system.mem_ctrls: recvAtomic: ReadReq 0x296a8
 584000: system.mem_ctrls: recvAtomic: WriteReq 0x9de00
 585000: system.mem_ctrls: recvAtomic: ReadReq 0x296a8
 585000: system.mem_ctrls: recvAtomic: WriteReq 0x9ddfc
 586000: system.mem_ctrls: recvAtomic: ReadReq 0x296a8
 586500: system.mem_ctrls: recvAtomic: ReadReq 0x296b0
 586500: system.mem_ctrls: recvAtomic: ReadReq 0x9de10
 587000: system.mem_ctrls: recvAtomic: ReadReq 0x296b0
 587000: system.mem_ctrls: recvAtomic: ReadReq 0x9de14
 587500: system.mem_ctrls: recvAtomic: ReadReq 0x296b0
 588000: system.mem_ctrls: recvAtomic: ReadReq 0x296b8
 588000: system.mem_ctrls: recvAtomic: ReadReq 0x9de18
 588500: system.mem_ctrls: recvAtomic: ReadReq 0x296b8
 590500: system.mem_ctrls: recvAtomic: ReadReq 0x296b8
 591000: system.mem_ctrls: recvAtomic: ReadReq 0x296c0
 591500: system.mem_ctrls: recvAtomic: ReadReq 0x296c0
 591500: system.mem_ctrls: recvAtomic: ReadReq 0x9ab50
 592000: system.mem_ctrls: recvAtomic: ReadReq 0x296c8
 593000: system.mem_ctrls: recvAtomic: ReadReq 0x296c8
 594500: system.mem_ctrls: recvAtomic: ReadReq 0x296c8
 596000: system.mem_ctrls: recvAtomic: ReadReq 0x29710
 596000: system.mem_ctrls: recvAtomic: ReadReq 0x9ab64
 596500: system.mem_ctrls: recvAtomic: ReadReq 0x29710
 596500: system.mem_ctrls: recvAtomic: WriteReq 0x9de44
 597000: system.mem_ctrls: recvAtomic: ReadReq 0x29710
 598500: system.mem_ctrls: recvAtomic: ReadReq 0x296d8
 599000: system.mem_ctrls: recvAtomic: ReadReq 0x296e0
 601000: system.mem_ctrls: recvAtomic: ReadReq 0x296e0
 601500: system.mem_ctrls: recvAtomic: ReadReq 0x296e0
 602000: system.mem_ctrls: recvAtomic: ReadReq 0x296e8
 602500: system.mem_ctrls: recvAtomic: ReadReq 0x9ab6c
 603500: system.mem_ctrls: recvAtomic: ReadReq 0x296e8
 605000: system.mem_ctrls: recvAtomic: ReadReq 0x29708
 605000: system.mem_ctrls: recvAtomic: ReadReq 0x9ddfc
 606500: system.mem_ctrls: recvAtomic: ReadReq 0x29708
 606500: system.mem_ctrls: recvAtomic: ReadReq 0x9de00
 608000: system.mem_ctrls: recvAtomic: ReadReq 0x29708
 608000: system.mem_ctrls: recvAtomic: ReadReq 0x9de04
 609500: system.mem_ctrls: recvAtomic: ReadReq 0x29708
 609500: system.mem_ctrls: recvAtomic: ReadReq 0x9de08
 611000: system.mem_ctrls: recvAtomic: ReadReq 0x29708
 611000: system.mem_ctrls: recvAtomic: ReadReq 0x9de0c
 612500: system.mem_ctrls: recvAtomic: ReadReq 0x2310
 613500: system.mem_ctrls: recvAtomic: ReadReq 0x2310
 614000: system.mem_ctrls: recvAtomic: WriteReq 0x9de18
 615000: system.mem_ctrls: recvAtomic: ReadReq 0x2310
 615500: system.mem_ctrls: recvAtomic: ReadReq 0x2318
 616000: system.mem_ctrls: recvAtomic: ReadReq 0x2318
 616000: system.mem_ctrls: recvAtomic: WriteReq 0x9de14
 617000: system.mem_ctrls: recvAtomic: ReadReq 0x2318
 617500: system.mem_ctrls: recvAtomic: WriteReq 0x9de10
 618500: system.mem_ctrls: recvAtomic: ReadReq 0x2318
 619000: system.mem_ctrls: recvAtomic: ReadReq 0x2320
 620000: system.mem_ctrls: recvAtomic: WriteReq 0x9de0c
 621500: system.mem_ctrls: recvAtomic: ReadReq 0x296a0
 622500: system.mem_ctrls: recvAtomic: WriteReq 0x9de08
 624000: system.mem_ctrls: recvAtomic: ReadReq 0x9810
 624500: system.mem_ctrls: recvAtomic: ReadReq 0x9818
 624500: system.mem_ctrls: recvAtomic: ReadReq 0x9de08
 625000: system.mem_ctrls: recvAtomic: ReadReq 0x9818
 625000: system.mem_ctrls: recvAtomic: ReadReq 0x9de08
 626500: system.mem_ctrls: recvAtomic: ReadReq 0x296a0
 627000: system.mem_ctrls: recvAtomic: ReadReq 0x296a8
 628000: system.mem_ctrls: recvAtomic: ReadReq 0x296a8
 628000: system.mem_ctrls: recvAtomic: WriteReq 0x9de08
 629000: system.mem_ctrls: recvAtomic: ReadReq 0x296a8
 629000: system.mem_ctrls: recvAtomic: WriteReq 0x9de04
 630000: system.mem_ctrls: recvAtomic: ReadReq 0x296a8
 630000: system.mem_ctrls: recvAtomic: WriteReq 0x9de00
 631000: system.mem_ctrls: recvAtomic: ReadReq 0x296a8
 631000: system.mem_ctrls: recvAtomic: WriteReq 0x9ddfc
 632000: system.mem_ctrls: recvAtomic: ReadReq 0x296a8
 632500: system.mem_ctrls: recvAtomic: ReadReq 0x296b0
 632500: system.mem_ctrls: recvAtomic: ReadReq 0x9de10
 633000: system.mem_ctrls: recvAtomic: ReadReq 0x296b0
 633000: system.mem_ctrls: recvAtomic: ReadReq 0x9de14
 633500: system.mem_ctrls: recvAtomic: ReadReq 0x296b0
 634000: system.mem_ctrls: recvAtomic: ReadReq 0x296b8
 634000: system.mem_ctrls: recvAtomic: ReadReq 0x9de18
 634500: system.mem_ctrls: recvAtomic: ReadReq 0x296b8
 636500: system.mem_ctrls: recvAtomic: ReadReq 0x296b8
 637000: system.mem_ctrls: recvAtomic: ReadReq 0x296c0
 637500: system.mem_ctrls: recvAtomic: ReadReq 0x296c0
 637500: system.mem_ctrls: recvAtomic: ReadReq 0x9aa1c
 638000: system.mem_ctrls: recvAtomic: ReadReq 0x296c8
 639000: system.mem_ctrls: recvAtomic: ReadReq 0x296c8
 640500: system.mem_ctrls: recvAtomic: ReadReq 0x29710
 640500: system.mem_ctrls: recvAtomic: ReadReq 0x9aa30
 641000: system.mem_ctrls: recvAtomic: ReadReq 0x29710
 641000: system.mem_ctrls: recvAtomic: WriteReq 0x9de48
 641500: system.mem_ctrls: recvAtomic: ReadReq 0x29710
 643000: system.mem_ctrls: recvAtomic: ReadReq 0x296d8
 643500: system.mem_ctrls: recvAtomic: ReadReq 0x296e0
 645500: system.mem_ctrls: recvAtomic: ReadReq 0x296e0
 646000: system.mem_ctrls: recvAtomic: ReadReq 0x296e0
 646500: system.mem_ctrls: recvAtomic: ReadReq 0x296e8
 647000: system.mem_ctrls: recvAtomic: ReadReq 0x9aa38
 648000: system.mem_ctrls: recvAtomic: ReadReq 0x296e8
 649500: system.mem_ctrls: recvAtomic: ReadReq 0x29708
 649500: system.mem_ctrls: recvAtomic: ReadReq 0x9ddfc
 651000: system.mem_ctrls: recvAtomic: ReadReq 0x29708
 651000: system.mem_ctrls: recvAtomic: ReadReq 0x9de00
 652500: system.mem_ctrls: recvAtomic: ReadReq 0x29708
 652500: system.mem_ctrls: recvAtomic: ReadReq 0x9de04
 654000: system.mem_ctrls: recvAtomic: ReadReq 0x29708
 654000: system.mem_ctrls: recvAtomic: ReadReq 0x9de08
 655500: system.mem_ctrls: recvAtomic: ReadReq 0x29708
 655500: system.mem_ctrls: recvAtomic: ReadReq 0x9de0c
 657000: system.mem_ctrls: recvAtomic: ReadReq 0x2320
 657000: system.mem_ctrls: recvAtomic: ReadReq 0x9de48
 657500: system.mem_ctrls: recvAtomic: ReadReq 0x2320
 658500: system.mem_ctrls: recvAtomic: ReadReq 0x2328
 658500: system.mem_ctrls: recvAtomic: WriteReq 0x9cbcc
 659000: system.mem_ctrls: recvAtomic: ReadReq 0x2328
 659500: system.mem_ctrls: recvAtomic: WriteReq 0x9de18
 660500: system.mem_ctrls: recvAtomic: ReadReq 0x2330
 661000: system.mem_ctrls: recvAtomic: ReadReq 0x2330
 661000: system.mem_ctrls: recvAtomic: WriteReq 0x9de14
 662000: system.mem_ctrls: recvAtomic: ReadReq 0x2330
 662500: system.mem_ctrls: recvAtomic: WriteReq 0x9de10
 663500: system.mem_ctrls: recvAtomic: ReadReq 0x2330
 664000: system.mem_ctrls: recvAtomic: ReadReq 0x2338
 665000: system.mem_ctrls: recvAtomic: WriteReq 0x9de0c
 666500: system.mem_ctrls: recvAtomic: ReadReq 0x296a0
 667500: system.mem_ctrls: recvAtomic: WriteReq 0x9de08
 669000: system.mem_ctrls: recvAtomic: ReadReq 0x9810
 669500: system.mem_ctrls: recvAtomic: ReadReq 0x9818
 669500: system.mem_ctrls: recvAtomic: ReadReq 0x9de08
 670000: system.mem_ctrls: recvAtomic: ReadReq 0x9818
 670000: system.mem_ctrls: recvAtomic: ReadReq 0x9de08
 671500: system.mem_ctrls: recvAtomic: ReadReq 0x296a0
 672000: system.mem_ctrls: recvAtomic: ReadReq 0x296a8
 673000: system.mem_ctrls: recvAtomic: ReadReq 0x296a8
 673000: system.mem_ctrls: recvAtomic: WriteReq 0x9de08
 674000: system.mem_ctrls: recvAtomic: ReadReq 0x296a8
 674000: system.mem_ctrls: recvAtomic: WriteReq 0x9de04
 675000: system.mem_ctrls: recvAtomic: ReadReq 0x296a8
 675000: system.mem_ctrls: recvAtomic: WriteReq 0x9de00
 676000: system.mem_ctrls: recvAtomic: ReadReq 0x296a8
 676000: system.mem_ctrls: recvAtomic: WriteReq 0x9ddfc
 677000: system.mem_ctrls: recvAtomic: ReadReq 0x296a8
 677500: system.mem_ctrls: recvAtomic: ReadReq 0x296b0
 677500: system.mem_ctrls: recvAtomic: ReadReq 0x9de10
 678000: system.mem_ctrls: recvAtomic: ReadReq 0x296b0
 678000: system.mem_ctrls: recvAtomic: ReadReq 0x9de14
 678500: system.mem_ctrls: recvAtomic: ReadReq 0x296b0
 679000: system.mem_ctrls: recvAtomic: ReadReq 0x296b8
 679000: system.mem_ctrls: recvAtomic: ReadReq 0x9de18
 679500: system.mem_ctrls: recvAtomic: ReadReq 0x296b8
 681500: system.mem_ctrls: recvAtomic: ReadReq 0x296b8
 682000: system.mem_ctrls: recvAtomic: ReadReq 0x296c0
 682500: system.mem_ctrls: recvAtomic: ReadReq 0x296c0
 682500: system.mem_ctrls: recvAtomic: ReadReq 0x9ac00
 683000: system.mem_ctrls: recvAtomic: ReadReq 0x296c8
 684000: system.mem_ctrls: recvAtomic: ReadReq 0x296c8
 685500: system.mem_ctrls: recvAtomic: ReadReq 0x29710
 685500: system.mem_ctrls: recvAtomic: ReadReq 0x9ac14
 686000: system.mem_ctrls: recvAtomic: ReadReq 0x29710
 686000: system.mem_ctrls: recvAtomic: WriteReq 0x9de4c
 686500: system.mem_ctrls: recvAtomic: ReadReq 0x29710
 688000: system.mem_ctrls: recvAtomic: ReadReq 0x296d8
 688500: system.mem_ctrls: recvAtomic: ReadReq 0x296e0
 690500: system.mem_ctrls: recvAtomic: ReadReq 0x296e0
 691000: system.mem_ctrls: recvAtomic: ReadReq 0x296e0
 691500: system.mem_ctrls: recvAtomic: ReadReq 0x296e8
 692000: system.mem_ctrls: recvAtomic: ReadReq 0x9ac1c
 693000: system.mem_ctrls: recvAtomic: ReadReq 0x296e8
 694500: system.mem_ctrls: recvAtomic: ReadReq 0x29708
 694500: system.mem_ctrls: recvAtomic: ReadReq 0x9ddfc
 696000: system.mem_ctrls: recvAtomic: ReadReq 0x29708
 696000: system.mem_ctrls: recvAtomic: ReadReq 0x9de00
 697500: system.mem_ctrls: recvAtomic: ReadReq 0x29708
 697500: system.mem_ctrls: recvAtomic: ReadReq 0x9de04
 699000: system.mem_ctrls: recvAtomic: ReadReq 0x29708
 699000: system.mem_ctrls: recvAtomic: ReadReq 0x9de08
 700500: system.mem_ctrls: recvAtomic: ReadReq 0x29708
 700500: system.mem_ctrls: recvAtomic: ReadReq 0x9de0c
 702000: system.mem_ctrls: recvAtomic: ReadReq 0x2338
 702000: system.mem_ctrls: recvAtomic: ReadReq 0x9de4c
 702500: system.mem_ctrls: recvAtomic: ReadReq 0x2340
 703500: system.mem_ctrls: recvAtomic: ReadReq 0x2340
 704000: system.mem_ctrls: recvAtomic: ReadReq 0x2348
 704000: system.mem_ctrls: recvAtomic: WriteReq 0x9cbc4
 704500: system.mem_ctrls: recvAtomic: ReadReq 0x2348
 705000: system.mem_ctrls: recvAtomic: WriteReq 0x9de18
 706000: system.mem_ctrls: recvAtomic: ReadReq 0x2348
 706500: system.mem_ctrls: recvAtomic: ReadReq 0x2348
 706500: system.mem_ctrls: recvAtomic: WriteReq 0x9de14
 707500: system.mem_ctrls: recvAtomic: ReadReq 0x2350
 708000: system.mem_ctrls: recvAtomic: WriteReq 0x9de10
 709000: system.mem_ctrls: recvAtomic: ReadReq 0x2350
 710000: system.mem_ctrls: recvAtomic: WriteReq 0x9de0c
 711500: system.mem_ctrls: recvAtomic: ReadReq 0x296a0
 712500: system.mem_ctrls: recvAtomic: WriteReq 0x9de08
 714000: system.mem_ctrls: recvAtomic: ReadReq 0x9810
 714500: system.mem_ctrls: recvAtomic: ReadReq 0x9818
 714500: system.mem_ctrls: recvAtomic: ReadReq 0x9de08
 715000: system.mem_ctrls: recvAtomic: ReadReq 0x9818
 715000: system.mem_ctrls: recvAtomic: ReadReq 0x9de08
 716500: system.mem_ctrls: recvAtomic: ReadReq 0x296a0
 717000: system.mem_ctrls: recvAtomic: ReadReq 0x296a8
 718000: system.mem_ctrls: recvAtomic: ReadReq 0x296a8
 718000: system.mem_ctrls: recvAtomic: WriteReq 0x9de08
 719000: system.mem_ctrls: recvAtomic: ReadReq 0x296a8
 719000: system.mem_ctrls: recvAtomic: WriteReq 0x9de04
 720000: system.mem_ctrls: recvAtomic: ReadReq 0x296a8
 720000: system.mem_ctrls: recvAtomic: WriteReq 0x9de00
 721000: system.mem_ctrls: recvAtomic: ReadReq 0x296a8
 721000: system.mem_ctrls: recvAtomic: WriteReq 0x9ddfc
 722000: system.mem_ctrls: recvAtomic: ReadReq 0x296a8
 722500: system.mem_ctrls: recvAtomic: ReadReq 0x296b0
 722500: system.mem_ctrls: recvAtomic: ReadReq 0x9de10
 723000: system.mem_ctrls: recvAtomic: ReadReq 0x296b0
 723000: system.mem_ctrls: recvAtomic: ReadReq 0x9de14
 723500: system.mem_ctrls: recvAtomic: ReadReq 0x296b0
 724000: system.mem_ctrls: recvAtomic: ReadReq 0x296b8
 724000: system.mem_ctrls: recvAtomic: ReadReq 0x9de18
 724500: system.mem_ctrls: recvAtomic: ReadReq 0x296b8
 726500: system.mem_ctrls: recvAtomic: ReadReq 0x296b8
 727000: system.mem_ctrls: recvAtomic: ReadReq 0x296c0
 727500: system.mem_ctrls: recvAtomic: ReadReq 0x296c0
 727500: system.mem_ctrls: recvAtomic: ReadReq 0x9a914
 728000: system.mem_ctrls: recvAtomic: ReadReq 0x296c8
 729000: system.mem_ctrls: recvAtomic: ReadReq 0x296c8
 730500: system.mem_ctrls: recvAtomic: ReadReq 0x29710
 730500: system.mem_ctrls: recvAtomic: ReadReq 0x9a928
 731000: system.mem_ctrls: recvAtomic: ReadReq 0x29710
 731000: system.mem_ctrls: recvAtomic: WriteReq 0x9de50
 731500: system.mem_ctrls: recvAtomic: ReadReq 0x29710
 733000: system.mem_ctrls: recvAtomic: ReadReq 0x296d8
 733500: system.mem_ctrls: recvAtomic: ReadReq 0x296e0
 735500: system.mem_ctrls: recvAtomic: ReadReq 0x296e0
 736000: system.mem_ctrls: recvAtomic: ReadReq 0x296e0
 736500: system.mem_ctrls: recvAtomic: ReadReq 0x296e8
 737000: system.mem_ctrls: recvAtomic: ReadReq 0x9a930
 738000: system.mem_ctrls: recvAtomic: ReadReq 0x296e8
 739500: system.mem_ctrls: recvAtomic: ReadReq 0x29708
 739500: system.mem_ctrls: recvAtomic: ReadReq 0x9ddfc
 741000: system.mem_ctrls: recvAtomic: ReadReq 0x29708
 741000: system.mem_ctrls: recvAtomic: ReadReq 0x9de00
 742500: system.mem_ctrls: recvAtomic: ReadReq 0x29708
 742500: system.mem_ctrls: recvAtomic: ReadReq 0x9de04
 744000: system.mem_ctrls: recvAtomic: ReadReq 0x29708
 744000: system.mem_ctrls: recvAtomic: ReadReq 0x9de08
 745500: system.mem_ctrls: recvAtomic: ReadReq 0x29708
 745500: system.mem_ctrls: recvAtomic: ReadReq 0x9de0c
 747000: system.mem_ctrls: recvAtomic: ReadReq 0x2350
 747500: system.mem_ctrls: recvAtomic: ReadReq 0x2358
 747500: system.mem_ctrls: recvAtomic: ReadReq 0x9de50
 748000: system.mem_ctrls: recvAtomic: ReadReq 0x2358
 749000: system.mem_ctrls: recvAtomic: ReadReq 0x2358
 749500: system.mem_ctrls: recvAtomic: ReadReq 0x2360
 749500: system.mem_ctrls: recvAtomic: WriteReq 0x9cbc8
 750000: system.mem_ctrls: recvAtomic: ReadReq 0x2360
 750500: system.mem_ctrls: recvAtomic: ReadReq 0x2368
 751000: system.mem_ctrls: recvAtomic: ReadReq 0x2368
 751500: system.mem_ctrls: recvAtomic: WriteReq 0x9cb00
 752000: system.mem_ctrls: recvAtomic: ReadReq 0x2370
 752500: system.mem_ctrls: recvAtomic: WriteReq 0x9cb04
 753000: system.mem_ctrls: recvAtomic: ReadReq 0x2370
 753500: system.mem_ctrls: recvAtomic: ReadReq 0x2378
 753500: system.mem_ctrls: recvAtomic: ReadReq 0x9cb4f
 755000: system.mem_ctrls: recvAtomic: ReadReq 0x2378
 756500: system.mem_ctrls: recvAtomic: ReadReq 0x2388
 756500: system.mem_ctrls: recvAtomic: ReadReq 0x9de2c
 757000: system.mem_ctrls: recvAtomic: ReadReq 0x2388
 757500: system.mem_ctrls: recvAtomic: ReadReq 0x2390
 758000: system.mem_ctrls: recvAtomic: ReadReq 0x2390
 758000: system.mem_ctrls: recvAtomic: ReadReq 0x9cba4
 758500: system.mem_ctrls: recvAtomic: ReadReq 0x2390
 759000: system.mem_ctrls: recvAtomic: ReadReq 0x2398
 760000: system.mem_ctrls: recvAtomic: ReadReq 0x2398
 761500: system.mem_ctrls: recvAtomic: ReadReq 0x2480
 762500: system.mem_ctrls: recvAtomic: ReadReq 0x2480
 763000: system.mem_ctrls: recvAtomic: ReadReq 0x2488
 764500: system.mem_ctrls: recvAtomic: ReadReq 0x23a8
 765000: system.mem_ctrls: recvAtomic: ReadReq 0x23b0
 765000: system.mem_ctrls: recvAtomic: ReadReq 0x9de2c
 765500: system.mem_ctrls: recvAtomic: ReadReq 0x23b0
 766000: system.mem_ctrls: recvAtomic: ReadReq 0x23b0
 766500: system.mem_ctrls: recvAtomic: ReadReq 0x23b8
 767000: system.mem_ctrls: recvAtomic: ReadReq 0x23b8
 768500: system.mem_ctrls: recvAtomic: ReadReq 0x23c0
 769000: system.mem_ctrls: recvAtomic: ReadReq 0x23c8
 770500: system.mem_ctrls: recvAtomic: ReadReq 0x23c8
 771000: system.mem_ctrls: recvAtomic: ReadReq 0x23d0
 771500: system.mem_ctrls: recvAtomic: ReadReq 0x17c
 772500: system.mem_ctrls: recvAtomic: ReadReq 0x23d0
 772500: system.mem_ctrls: recvAtomic: ReadReq 0x178
 773000: system.mem_ctrls: recvAtomic: ReadReq 0x23d0
 774500: system.mem_ctrls: recvAtomic: ReadReq 0x23b8
 775000: system.mem_ctrls: recvAtomic: ReadReq 0x23c0
 775500: system.mem_ctrls: recvAtomic: ReadReq 0x9b040
 776000: system.mem_ctrls: recvAtomic: WriteReq 0x9de1c
 777500: system.mem_ctrls: recvAtomic: ReadReq 0x17e70
 778500: system.mem_ctrls: recvAtomic: WriteReq 0x9de18
 780000: system.mem_ctrls: recvAtomic: ReadReq 0x1db8
 780500: system.mem_ctrls: recvAtomic: ReadReq 0x1dc0
 780500: system.mem_ctrls: recvAtomic: ReadReq 0x9de18
 781000: system.mem_ctrls: recvAtomic: ReadReq 0x1dc0
 781000: system.mem_ctrls: recvAtomic: ReadReq 0x9de18
 782500: system.mem_ctrls: recvAtomic: ReadReq 0x17e70
 783000: system.mem_ctrls: recvAtomic: ReadReq 0x17e78
 784000: system.mem_ctrls: recvAtomic: ReadReq 0x17e78
 784500: system.mem_ctrls: recvAtomic: ReadReq 0x17e80
 785000: system.mem_ctrls: recvAtomic: ReadReq 0x17e80
 785500: system.mem_ctrls: recvAtomic: ReadReq 0x17e88
 785500: system.mem_ctrls: recvAtomic: ReadReq 0x9cb4f
 787000: system.mem_ctrls: recvAtomic: ReadReq 0x17e88
 788500: system.mem_ctrls: recvAtomic: ReadReq 0x17e98
 789000: system.mem_ctrls: recvAtomic: ReadReq 0x17ea0
 789500: system.mem_ctrls: recvAtomic: ReadReq 0x17ea0
 789500: system.mem_ctrls: recvAtomic: ReadReq 0x9de1c
 791000: system.mem_ctrls: recvAtomic: ReadReq 0x23c0
 792000: system.mem_ctrls: recvAtomic: ReadReq 0x23c0
 792000: system.mem_ctrls: recvAtomic: WriteReq 0x9b040
 792500: system.mem_ctrls: recvAtomic: ReadReq 0x23c0
 793000: system.mem_ctrls: recvAtomic: ReadReq 0x23c8
 794500: system.mem_ctrls: recvAtomic: ReadReq 0x23c8
 795000: system.mem_ctrls: recvAtomic: ReadReq 0x23d0
 795500: system.mem_ctrls: recvAtomic: ReadReq 0x184
 796500: system.mem_ctrls: recvAtomic: ReadReq 0x23d0
 796500: system.mem_ctrls: recvAtomic: ReadReq 0x180
 797000: system.mem_ctrls: recvAtomic: ReadReq 0x23d0
 798500: system.mem_ctrls: recvAtomic: ReadReq 0x23b8
 799000: system.mem_ctrls: recvAtomic: ReadReq 0x23c0
 799500: system.mem_ctrls: recvAtomic: ReadReq 0x9b03c
 800000: system.mem_ctrls: recvAtomic: WriteReq 0x9de1c
 801500: system.mem_ctrls: recvAtomic: ReadReq 0x5c7d0
 802500: system.mem_ctrls: recvAtomic: WriteReq 0x9de18
 804000: system.mem_ctrls: recvAtomic: ReadReq 0x9810
 804500: system.mem_ctrls: recvAtomic: ReadReq 0x9818
 804500: system.mem_ctrls: recvAtomic: ReadReq 0x9de18
 805000: system.mem_ctrls: recvAtomic: ReadReq 0x9818
 805000: system.mem_ctrls: recvAtomic: ReadReq 0x9de18
 806500: system.mem_ctrls: recvAtomic: ReadReq 0x5c7d0
 807000: system.mem_ctrls: recvAtomic: ReadReq 0x5c7d8
 808000: system.mem_ctrls: recvAtomic: ReadReq 0x5c7d8
 808000: system.mem_ctrls: recvAtomic: WriteReq 0x9de18
 809000: system.mem_ctrls: recvAtomic: ReadReq 0x5c7d8
 809500: system.mem_ctrls: recvAtomic: ReadReq 0x5c7e0
 810000: system.mem_ctrls: recvAtomic: ReadReq 0x5c7e0
 810500: system.mem_ctrls: recvAtomic: ReadReq 0x5c7e8
 811000: system.mem_ctrls: recvAtomic: ReadReq 0x5c7e8
 811500: system.mem_ctrls: recvAtomic: ReadReq 0x5c7f0
 811500: system.mem_ctrls: recvAtomic: ReadReq 0x9cb4a
 813000: system.mem_ctrls: recvAtomic: ReadReq 0x5c7f0
 813000: system.mem_ctrls: recvAtomic: ReadReq 0x9de18
 814500: system.mem_ctrls: recvAtomic: ReadReq 0x5c7f0
 815500: system.mem_ctrls: recvAtomic: ReadReq 0x5c7f0
 815500: system.mem_ctrls: recvAtomic: ReadReq 0x9de1c
 817000: system.mem_ctrls: recvAtomic: ReadReq 0x23c0
 818000: system.mem_ctrls: recvAtomic: ReadReq 0x23c0
 818000: system.mem_ctrls: recvAtomic: WriteReq 0x9b03c
 818500: system.mem_ctrls: recvAtomic: ReadReq 0x23c0
 819000: system.mem_ctrls: recvAtomic: ReadReq 0x23c8
 820500: system.mem_ctrls: recvAtomic: ReadReq 0x23c8
 821000: system.mem_ctrls: recvAtomic: ReadReq 0x23d0
 821500: system.mem_ctrls: recvAtomic: ReadReq 0x18c
 822500: system.mem_ctrls: recvAtomic: ReadReq 0x23d0
 822500: system.mem_ctrls: recvAtomic: ReadReq 0x188
 823000: system.mem_ctrls: recvAtomic: ReadReq 0x23d0
 824500: system.mem_ctrls: recvAtomic: ReadReq 0x23b8
 825000: system.mem_ctrls: recvAtomic: ReadReq 0x23c0
 825500: system.mem_ctrls: recvAtomic: ReadReq 0x9b038
 826000: system.mem_ctrls: recvAtomic: WriteReq 0x9de1c
 827500: system.mem_ctrls: recvAtomic: ReadReq 0x17f30
 828500: system.mem_ctrls: recvAtomic: WriteReq 0x9de18
 830000: system.mem_ctrls: recvAtomic: ReadReq 0x9810
 830500: system.mem_ctrls: recvAtomic: ReadReq 0x9818
 830500: system.mem_ctrls: recvAtomic: ReadReq 0x9de18
 831000: system.mem_ctrls: recvAtomic: ReadReq 0x9818
 831000: system.mem_ctrls: recvAtomic: ReadReq 0x9de18
 832500: system.mem_ctrls: recvAtomic: ReadReq 0x17f30
 833000: system.mem_ctrls: recvAtomic: ReadReq 0x17f38
 834000: system.mem_ctrls: recvAtomic: ReadReq 0x17f38
 834000: system.mem_ctrls: recvAtomic: WriteReq 0x9de18
 835000: system.mem_ctrls: recvAtomic: ReadReq 0x17f38
 835500: system.mem_ctrls: recvAtomic: ReadReq 0x17f40
 836000: system.mem_ctrls: recvAtomic: ReadReq 0x17f40
 836500: system.mem_ctrls: recvAtomic: ReadReq 0x17f48
 837000: system.mem_ctrls: recvAtomic: ReadReq 0x17f48
 837500: system.mem_ctrls: recvAtomic: ReadReq 0x17f50
 837500: system.mem_ctrls: recvAtomic: ReadReq 0x9cb4a
 839000: system.mem_ctrls: recvAtomic: ReadReq 0x17f50
 839000: system.mem_ctrls: recvAtomic: ReadReq 0x9de18
 840500: system.mem_ctrls: recvAtomic: ReadReq 0x17f50
 841500: system.mem_ctrls: recvAtomic: ReadReq 0x17f50
 841500: system.mem_ctrls: recvAtomic: ReadReq 0x9de1c
 843000: system.mem_ctrls: recvAtomic: ReadReq 0x23c0
 844000: system.mem_ctrls: recvAtomic: ReadReq 0x23c0
 844000: system.mem_ctrls: recvAtomic: WriteReq 0x9b038
 844500: system.mem_ctrls: recvAtomic: ReadReq 0x23c0
 845000: system.mem_ctrls: recvAtomic: ReadReq 0x23c8
 846500: system.mem_ctrls: recvAtomic: ReadReq 0x23c8
 847000: system.mem_ctrls: recvAtomic: ReadReq 0x23d0
 847500: system.mem_ctrls: recvAtomic: ReadReq 0x194
 848500: system.mem_ctrls: recvAtomic: ReadReq 0x23d0
 848500: system.mem_ctrls: recvAtomic: ReadReq 0x190
 849000: system.mem_ctrls: recvAtomic: ReadReq 0x23d0
 850500: system.mem_ctrls: recvAtomic: ReadReq 0x23b8
 851000: system.mem_ctrls: recvAtomic: ReadReq 0x23c0
 851500: system.mem_ctrls: recvAtomic: ReadReq 0x9b034
 852000: system.mem_ctrls: recvAtomic: WriteReq 0x9de1c
 853500: system.mem_ctrls: recvAtomic: ReadReq 0x17eb0
 854500: system.mem_ctrls: recvAtomic: WriteReq 0x9de18
 856000: system.mem_ctrls: recvAtomic: ReadReq 0x1db8
 856500: system.mem_ctrls: recvAtomic: ReadReq 0x1dc0
 856500: system.mem_ctrls: recvAtomic: ReadReq 0x9de18
 857000: system.mem_ctrls: recvAtomic: ReadReq 0x1dc0
 857000: system.mem_ctrls: recvAtomic: ReadReq 0x9de18
 858500: system.mem_ctrls: recvAtomic: ReadReq 0x17eb0
 859000: system.mem_ctrls: recvAtomic: ReadReq 0x17eb8
 860000: system.mem_ctrls: recvAtomic: ReadReq 0x17eb8
 860500: system.mem_ctrls: recvAtomic: ReadReq 0x17ec0
 860500: system.mem_ctrls: recvAtomic: ReadReq 0x9cb48
 861000: system.mem_ctrls: recvAtomic: ReadReq 0x17ec0
 861500: system.mem_ctrls: recvAtomic: ReadReq 0x17ec8
 862000: system.mem_ctrls: recvAtomic: ReadReq 0x17ec8
 863000: system.mem_ctrls: recvAtomic: ReadReq 0x17ec8
 863500: system.mem_ctrls: recvAtomic: ReadReq 0x17ed0
 865000: system.mem_ctrls: recvAtomic: ReadReq 0x17ed0
 865500: system.mem_ctrls: recvAtomic: ReadReq 0x17ed0
 866000: system.mem_ctrls: recvAtomic: ReadReq 0x17ed8
 867000: system.mem_ctrls: recvAtomic: ReadReq 0x17ed8
 867500: system.mem_ctrls: recvAtomic: ReadReq 0x17ee0
 868500: system.mem_ctrls: recvAtomic: ReadReq 0x17ee0
 869000: system.mem_ctrls: recvAtomic: ReadReq 0x17ee0
 869000: system.mem_ctrls: recvAtomic: ReadReq 0x9de1c
[...]
10538500: system.mem_ctrls: recvAtomic: ReadReq 0xf670
10540000: system.mem_ctrls: recvAtomic: ReadReq 0xf670
10540500: system.mem_ctrls: recvAtomic: ReadReq 0xf678
10541500: system.mem_ctrls: recvAtomic: ReadReq 0xf678
10542000: system.mem_ctrls: recvAtomic: ReadReq 0xf678
10543500: system.mem_ctrls: recvAtomic: ReadReq 0xf618
10543500: system.mem_ctrls: recvAtomic: ReadReq 0x9b1d4
10544000: system.mem_ctrls: recvAtomic: ReadReq 0xf618
10544000: system.mem_ctrls: recvAtomic: ReadReq 0x9b1d8
10544500: system.mem_ctrls: recvAtomic: ReadReq 0xf618
10545000: system.mem_ctrls: recvAtomic: ReadReq 0xf620
10546500: system.mem_ctrls: recvAtomic: ReadReq 0xf630
10547000: system.mem_ctrls: recvAtomic: ReadReq 0xf630
10547500: system.mem_ctrls: recvAtomic: ReadReq 0xf638
10549000: system.mem_ctrls: recvAtomic: ReadReq 0xf638
10549500: system.mem_ctrls: recvAtomic: ReadReq 0xf640
10549500: system.mem_ctrls: recvAtomic: ReadReq 0x9b254
10550000: system.mem_ctrls: recvAtomic: ReadReq 0xf640
10550500: system.mem_ctrls: recvAtomic: ReadReq 0xf640
10550500: system.mem_ctrls: recvAtomic: ReadReq 0x9dd34
10551500: system.mem_ctrls: recvAtomic: ReadReq 0xf648
10551500: system.mem_ctrls: recvAtomic: ReadReq 0x9dd38
10552500: system.mem_ctrls: recvAtomic: ReadReq 0xf648
10553000: system.mem_ctrls: recvAtomic: ReadReq 0xf650
10554500: system.mem_ctrls: recvAtomic: ReadReq 0xf650
10554500: system.mem_ctrls: recvAtomic: ReadReq 0x6a011
10555500: system.mem_ctrls: recvAtomic: ReadReq 0xf650
10555500: system.mem_ctrls: recvAtomic: WriteReq 0x9dd30
10556000: system.mem_ctrls: recvAtomic: ReadReq 0xf658
10557000: system.mem_ctrls: recvAtomic: ReadReq 0xf658
10557500: system.mem_ctrls: recvAtomic: ReadReq 0xf658
10557500: system.mem_ctrls: recvAtomic: WriteReq 0x9dd24
10558500: system.mem_ctrls: recvAtomic: ReadReq 0xf658
10558500: system.mem_ctrls: recvAtomic: WriteReq 0x9dd20
10559500: system.mem_ctrls: recvAtomic: ReadReq 0xf660
10559500: system.mem_ctrls: recvAtomic: WriteReq 0x9dd60
10560000: system.mem_ctrls: recvAtomic: ReadReq 0xf660
10560500: system.mem_ctrls: recvAtomic: ReadReq 0x9c14c
10561000: system.mem_ctrls: recvAtomic: WriteReq 0x9dd1c
10562500: system.mem_ctrls: recvAtomic: ReadReq 0xe3e0
10562500: system.mem_ctrls: recvAtomic: WriteReq 0x9dd18
10563500: system.mem_ctrls: recvAtomic: ReadReq 0xe3e0
10563500: system.mem_ctrls: recvAtomic: WriteReq 0x9dd14
10564500: system.mem_ctrls: recvAtomic: ReadReq 0xe3e0
10564500: system.mem_ctrls: recvAtomic: WriteReq 0x9dd10
10565500: system.mem_ctrls: recvAtomic: ReadReq 0xe3e0
10565500: system.mem_ctrls: recvAtomic: WriteReq 0x9dd0c
10566500: system.mem_ctrls: recvAtomic: ReadReq 0xe3e0
10567000: system.mem_ctrls: recvAtomic: ReadReq 0xe3e8
10568000: system.mem_ctrls: recvAtomic: WriteReq 0x9dd08
10569500: system.mem_ctrls: recvAtomic: ReadReq 0x1c30
10569500: system.mem_ctrls: recvAtomic: ReadReq 0x9dd08
10570000: system.mem_ctrls: recvAtomic: ReadReq 0x1c30
10570000: system.mem_ctrls: recvAtomic: ReadReq 0x9dd08
10571500: system.mem_ctrls: recvAtomic: ReadReq 0xe3e8
10572500: system.mem_ctrls: recvAtomic: ReadReq 0xe3e8
10573000: system.mem_ctrls: recvAtomic: ReadReq 0xe3f0
10574000: system.mem_ctrls: recvAtomic: ReadReq 0xe3f0
10574000: system.mem_ctrls: recvAtomic: ReadReq 0x9dd20
10574500: system.mem_ctrls: recvAtomic: ReadReq 0xe3f0
10575000: system.mem_ctrls: recvAtomic: ReadReq 0xe3f8
10575000: system.mem_ctrls: recvAtomic: ReadReq 0x9dd24
10575500: system.mem_ctrls: recvAtomic: ReadReq 0xe3f8
10575500: system.mem_ctrls: recvAtomic: ReadReq 0x9b1c0
10576000: system.mem_ctrls: recvAtomic: ReadReq 0xe3f8
10577000: system.mem_ctrls: recvAtomic: ReadReq 0xe3f8
10577500: system.mem_ctrls: recvAtomic: ReadReq 0xe400
10579000: system.mem_ctrls: recvAtomic: ReadReq 0xe400
10579000: system.mem_ctrls: recvAtomic: ReadReq 0x9b1d0
10579500: system.mem_ctrls: recvAtomic: ReadReq 0xe408
10580500: system.mem_ctrls: recvAtomic: ReadReq 0xe408
10582000: system.mem_ctrls: recvAtomic: ReadReq 0xe408
10582500: system.mem_ctrls: recvAtomic: ReadReq 0xe408
10583000: system.mem_ctrls: recvAtomic: ReadReq 0xe410
10584500: system.mem_ctrls: recvAtomic: ReadReq 0xe410
10584500: system.mem_ctrls: recvAtomic: ReadReq 0x9b1d4
10585000: system.mem_ctrls: recvAtomic: ReadReq 0xe418
10586000: system.mem_ctrls: recvAtomic: ReadReq 0xe418
10586500: system.mem_ctrls: recvAtomic: ReadReq 0xe420
10588000: system.mem_ctrls: recvAtomic: ReadReq 0xe420
10588000: system.mem_ctrls: recvAtomic: ReadReq 0x9b1e0
10589000: system.mem_ctrls: recvAtomic: ReadReq 0xe420
10589500: system.mem_ctrls: recvAtomic: ReadReq 0xe428
10591000: system.mem_ctrls: recvAtomic: ReadReq 0xe428
10591500: system.mem_ctrls: recvAtomic: ReadReq 0xe428
10592000: system.mem_ctrls: recvAtomic: ReadReq 0xe428
10592500: system.mem_ctrls: recvAtomic: ReadReq 0xe430
10592500: system.mem_ctrls: recvAtomic: WriteReq 0x9b1d4
10593000: system.mem_ctrls: recvAtomic: ReadReq 0xe430
10593000: system.mem_ctrls: recvAtomic: WriteReq 0xa0cc9
10593500: system.mem_ctrls: recvAtomic: ReadReq 0xe430
10593500: system.mem_ctrls: recvAtomic: ReadReq 0x9b1c0
10594000: system.mem_ctrls: recvAtomic: ReadReq 0xe430
10595000: system.mem_ctrls: recvAtomic: ReadReq 0xe438
10596500: system.mem_ctrls: recvAtomic: ReadReq 0xe438
10597000: system.mem_ctrls: recvAtomic: ReadReq 0xe440
10598000: system.mem_ctrls: recvAtomic: ReadReq 0xe440
10599500: system.mem_ctrls: recvAtomic: ReadReq 0xe440
10600500: system.mem_ctrls: recvAtomic: ReadReq 0xe440
10601000: system.mem_ctrls: recvAtomic: ReadReq 0xe448
10602500: system.mem_ctrls: recvAtomic: ReadReq 0xe448
10603000: system.mem_ctrls: recvAtomic: ReadReq 0xe448
10603500: system.mem_ctrls: recvAtomic: ReadReq 0xe450
10604500: system.mem_ctrls: recvAtomic: ReadReq 0xe450
10605500: system.mem_ctrls: recvAtomic: ReadReq 0xe450
10605500: system.mem_ctrls: recvAtomic: ReadReq 0x9dd0c
10607000: system.mem_ctrls: recvAtomic: ReadReq 0xe450
10607000: system.mem_ctrls: recvAtomic: ReadReq 0x9dd10
10608500: system.mem_ctrls: recvAtomic: ReadReq 0xe450
10608500: system.mem_ctrls: recvAtomic: ReadReq 0x9dd14
10610000: system.mem_ctrls: recvAtomic: ReadReq 0xe450
10610000: system.mem_ctrls: recvAtomic: ReadReq 0x9dd18
10611500: system.mem_ctrls: recvAtomic: ReadReq 0xe458
10611500: system.mem_ctrls: recvAtomic: ReadReq 0x9dd1c
10613000: system.mem_ctrls: recvAtomic: ReadReq 0xf660
10613500: system.mem_ctrls: recvAtomic: ReadReq 0xf668
10614500: system.mem_ctrls: recvAtomic: ReadReq 0xf668
10614500: system.mem_ctrls: recvAtomic: ReadReq 0x9dd60
10615000: system.mem_ctrls: recvAtomic: ReadReq 0xf668
10615500: system.mem_ctrls: recvAtomic: ReadReq 0xf670
10615500: system.mem_ctrls: recvAtomic: ReadReq 0x9dd30
10616000: system.mem_ctrls: recvAtomic: ReadReq 0xf670
10617000: system.mem_ctrls: recvAtomic: ReadReq 0xf670
10618500: system.mem_ctrls: recvAtomic: ReadReq 0xf670
10619000: system.mem_ctrls: recvAtomic: ReadReq 0xf678
10620000: system.mem_ctrls: recvAtomic: ReadReq 0xf678
10620500: system.mem_ctrls: recvAtomic: ReadReq 0xf678
10622000: system.mem_ctrls: recvAtomic: ReadReq 0xf618
10622000: system.mem_ctrls: recvAtomic: ReadReq 0x9b1d4
10622500: system.mem_ctrls: recvAtomic: ReadReq 0xf618
10622500: system.mem_ctrls: recvAtomic: ReadReq 0x9b1d8
10623000: system.mem_ctrls: recvAtomic: ReadReq 0xf618
10623500: system.mem_ctrls: recvAtomic: ReadReq 0xf620
10625000: system.mem_ctrls: recvAtomic: ReadReq 0xf630
10625500: system.mem_ctrls: recvAtomic: ReadReq 0xf630
10626000: system.mem_ctrls: recvAtomic: ReadReq 0xf638
10627500: system.mem_ctrls: recvAtomic: ReadReq 0xf638
10628000: system.mem_ctrls: recvAtomic: ReadReq 0xf640
10628000: system.mem_ctrls: recvAtomic: ReadReq 0x9b254
10628500: system.mem_ctrls: recvAtomic: ReadReq 0xf640
10629000: system.mem_ctrls: recvAtomic: ReadReq 0xf640
10629000: system.mem_ctrls: recvAtomic: ReadReq 0x9dd34
10630000: system.mem_ctrls: recvAtomic: ReadReq 0xf648
10630000: system.mem_ctrls: recvAtomic: ReadReq 0x9dd38
10631000: system.mem_ctrls: recvAtomic: ReadReq 0xf648
10631500: system.mem_ctrls: recvAtomic: ReadReq 0xf650
10633000: system.mem_ctrls: recvAtomic: ReadReq 0xf650
10633000: system.mem_ctrls: recvAtomic: ReadReq 0x6a012
10634000: system.mem_ctrls: recvAtomic: ReadReq 0xf650
10634000: system.mem_ctrls: recvAtomic: WriteReq 0x9dd30
10634500: system.mem_ctrls: recvAtomic: ReadReq 0xf658
10635500: system.mem_ctrls: recvAtomic: ReadReq 0xf658
10636000: system.mem_ctrls: recvAtomic: ReadReq 0xf658
10636000: system.mem_ctrls: recvAtomic: WriteReq 0x9dd24
10637000: system.mem_ctrls: recvAtomic: ReadReq 0xf658
10637000: system.mem_ctrls: recvAtomic: WriteReq 0x9dd20
10638000: system.mem_ctrls: recvAtomic: ReadReq 0xf660
10638000: system.mem_ctrls: recvAtomic: WriteReq 0x9dd60
10638500: system.mem_ctrls: recvAtomic: ReadReq 0xf660
10639000: system.mem_ctrls: recvAtomic: ReadReq 0x9c14c
10639500: system.mem_ctrls: recvAtomic: WriteReq 0x9dd1c
10641000: system.mem_ctrls: recvAtomic: ReadReq 0xe3e0
10641000: system.mem_ctrls: recvAtomic: WriteReq 0x9dd18
10642000: system.mem_ctrls: recvAtomic: ReadReq 0xe3e0
10642000: system.mem_ctrls: recvAtomic: WriteReq 0x9dd14
10643000: system.mem_ctrls: recvAtomic: ReadReq 0xe3e0
10643000: system.mem_ctrls: recvAtomic: WriteReq 0x9dd10
10644000: system.mem_ctrls: recvAtomic: ReadReq 0xe3e0
10644000: system.mem_ctrls: recvAtomic: WriteReq 0x9dd0c
10645000: system.mem_ctrls: recvAtomic: ReadReq 0xe3e0
10645500: system.mem_ctrls: recvAtomic: ReadReq 0xe3e8
10646500: system.mem_ctrls: recvAtomic: WriteReq 0x9dd08
10648000: system.mem_ctrls: recvAtomic: ReadReq 0x1c30
10648000: system.mem_ctrls: recvAtomic: ReadReq 0x9dd08
10648500: system.mem_ctrls: recvAtomic: ReadReq 0x1c30
10648500: system.mem_ctrls: recvAtomic: ReadReq 0x9dd08
10650000: system.mem_ctrls: recvAtomic: ReadReq 0xe3e8
10651000: system.mem_ctrls: recvAtomic: ReadReq 0xe3e8
10651500: system.mem_ctrls: recvAtomic: ReadReq 0xe3f0
10652500: system.mem_ctrls: recvAtomic: ReadReq 0xe3f0
10652500: system.mem_ctrls: recvAtomic: ReadReq 0x9dd20
10653000: system.mem_ctrls: recvAtomic: ReadReq 0xe3f0
10653500: system.mem_ctrls: recvAtomic: ReadReq 0xe3f8
10653500: system.mem_ctrls: recvAtomic: ReadReq 0x9dd24
10654000: system.mem_ctrls: recvAtomic: ReadReq 0xe3f8
10654000: system.mem_ctrls: recvAtomic: ReadReq 0x9b1c0
10654500: system.mem_ctrls: recvAtomic: ReadReq 0xe3f8
10655500: system.mem_ctrls: recvAtomic: ReadReq 0xe3f8
10656000: system.mem_ctrls: recvAtomic: ReadReq 0xe400
10657500: system.mem_ctrls: recvAtomic: ReadReq 0xe400
10657500: system.mem_ctrls: recvAtomic: ReadReq 0x9b1d0
10658000: system.mem_ctrls: recvAtomic: ReadReq 0xe408
10659000: system.mem_ctrls: recvAtomic: ReadReq 0xe408
10660500: system.mem_ctrls: recvAtomic: ReadReq 0xe408
10661000: system.mem_ctrls: recvAtomic: ReadReq 0xe408
10661500: system.mem_ctrls: recvAtomic: ReadReq 0xe410
10663000: system.mem_ctrls: recvAtomic: ReadReq 0xe410
10663000: system.mem_ctrls: recvAtomic: ReadReq 0x9b1d4
10663500: system.mem_ctrls: recvAtomic: ReadReq 0xe418
10664500: system.mem_ctrls: recvAtomic: ReadReq 0xe418
10665000: system.mem_ctrls: recvAtomic: ReadReq 0xe420
10666500: system.mem_ctrls: recvAtomic: ReadReq 0xe420
10666500: system.mem_ctrls: recvAtomic: ReadReq 0x9b1e0
10667500: system.mem_ctrls: recvAtomic: ReadReq 0xe420
10668000: system.mem_ctrls: recvAtomic: ReadReq 0xe428
10669500: system.mem_ctrls: recvAtomic: ReadReq 0xe428
10670000: system.mem_ctrls: recvAtomic: ReadReq 0xe428
10670500: system.mem_ctrls: recvAtomic: ReadReq 0xe428
10671000: system.mem_ctrls: recvAtomic: ReadReq 0xe430
10671000: system.mem_ctrls: recvAtomic: WriteReq 0x9b1d4
10671500: system.mem_ctrls: recvAtomic: ReadReq 0xe430
10671500: system.mem_ctrls: recvAtomic: WriteReq 0xa0cca
10672000: system.mem_ctrls: recvAtomic: ReadReq 0xe430
10672000: system.mem_ctrls: recvAtomic: ReadReq 0x9b1c0
10672500: system.mem_ctrls: recvAtomic: ReadReq 0xe430
10673500: system.mem_ctrls: recvAtomic: ReadReq 0xe438
10675000: system.mem_ctrls: recvAtomic: ReadReq 0xe438
10675500: system.mem_ctrls: recvAtomic: ReadReq 0xe440
10676500: system.mem_ctrls: recvAtomic: ReadReq 0xe440
10678000: system.mem_ctrls: recvAtomic: ReadReq 0xe440
10679000: system.mem_ctrls: recvAtomic: ReadReq 0xe440
10679500: system.mem_ctrls: recvAtomic: ReadReq 0xe448
10681000: system.mem_ctrls: recvAtomic: ReadReq 0xe448
10681500: system.mem_ctrls: recvAtomic: ReadReq 0xe448
10682000: system.mem_ctrls: recvAtomic: ReadReq 0xe450
10683000: system.mem_ctrls: recvAtomic: ReadReq 0xe450
10684000: system.mem_ctrls: recvAtomic: ReadReq 0xe450
10684000: system.mem_ctrls: recvAtomic: ReadReq 0x9dd0c
10685500: system.mem_ctrls: recvAtomic: ReadReq 0xe450
10685500: system.mem_ctrls: recvAtomic: ReadReq 0x9dd10
10687000: system.mem_ctrls: recvAtomic: ReadReq 0xe450
10687000: system.mem_ctrls: recvAtomic: ReadReq 0x9dd14
10688500: system.mem_ctrls: recvAtomic: ReadReq 0xe450
10688500: system.mem_ctrls: recvAtomic: ReadReq 0x9dd18
10690000: system.mem_ctrls: recvAtomic: ReadReq 0xe458
10690000: system.mem_ctrls: recvAtomic: ReadReq 0x9dd1c
10691500: system.mem_ctrls: recvAtomic: ReadReq 0xf660
10692000: system.mem_ctrls: recvAtomic: ReadReq 0xf668
10693000: system.mem_ctrls: recvAtomic: ReadReq 0xf668
10693000: system.mem_ctrls: recvAtomic: ReadReq 0x9dd60
10693500: system.mem_ctrls: recvAtomic: ReadReq 0xf668
10694000: system.mem_ctrls: recvAtomic: ReadReq 0xf670
10694000: system.mem_ctrls: recvAtomic: ReadReq 0x9dd30
10694500: system.mem_ctrls: recvAtomic: ReadReq 0xf670
10695500: system.mem_ctrls: recvAtomic: ReadReq 0xf670
10697000: system.mem_ctrls: recvAtomic: ReadReq 0xf670
10697500: system.mem_ctrls: recvAtomic: ReadReq 0xf678
10698500: system.mem_ctrls: recvAtomic: ReadReq 0xf678
10699000: system.mem_ctrls: recvAtomic: ReadReq 0xf678
10700500: system.mem_ctrls: recvAtomic: ReadReq 0xf618
10700500: system.mem_ctrls: recvAtomic: ReadReq 0x9b1d4
10701000: system.mem_ctrls: recvAtomic: ReadReq 0xf618
10701000: system.mem_ctrls: recvAtomic: ReadReq 0x9b1d8
10701500: system.mem_ctrls: recvAtomic: ReadReq 0xf618
10702000: system.mem_ctrls: recvAtomic: ReadReq 0xf620
10703500: system.mem_ctrls: recvAtomic: ReadReq 0xf630
10704000: system.mem_ctrls: recvAtomic: ReadReq 0xf630
10704500: system.mem_ctrls: recvAtomic: ReadReq 0xf638
10706000: system.mem_ctrls: recvAtomic: ReadReq 0xf638
10706500: system.mem_ctrls: recvAtomic: ReadReq 0xf640
10706500: system.mem_ctrls: recvAtomic: ReadReq 0x9b254
10707000: system.mem_ctrls: recvAtomic: ReadReq 0xf640
10707500: system.mem_ctrls: recvAtomic: ReadReq 0xf640
10707500: system.mem_ctrls: recvAtomic: ReadReq 0x9dd34
10708500: system.mem_ctrls: recvAtomic: ReadReq 0xf648
10708500: system.mem_ctrls: recvAtomic: ReadReq 0x9dd38
10709500: system.mem_ctrls: recvAtomic: ReadReq 0xf648
10710000: system.mem_ctrls: recvAtomic: ReadReq 0xf650
10711500: system.mem_ctrls: recvAtomic: ReadReq 0xf650
10711500: system.mem_ctrls: recvAtomic: ReadReq 0x6a013
10712500: system.mem_ctrls: recvAtomic: ReadReq 0xf650
10712500: system.mem_ctrls: recvAtomic: WriteReq 0x9dd30
10713000: system.mem_ctrls: recvAtomic: ReadReq 0xf658
10714000: system.mem_ctrls: recvAtomic: ReadReq 0xf658
10714500: system.mem_ctrls: recvAtomic: ReadReq 0xf658
10714500: system.mem_ctrls: recvAtomic: WriteReq 0x9dd24
10715500: system.mem_ctrls: recvAtomic: ReadReq 0xf658
10715500: system.mem_ctrls: recvAtomic: WriteReq 0x9dd20
10716500: system.mem_ctrls: recvAtomic: ReadReq 0xf660
10716500: system.mem_ctrls: recvAtomic: WriteReq 0x9dd60
10717000: system.mem_ctrls: recvAtomic: ReadReq 0xf660
10717500: system.mem_ctrls: recvAtomic: ReadReq 0x9c14c
10718000: system.mem_ctrls: recvAtomic: WriteReq 0x9dd1c
10719500: system.mem_ctrls: recvAtomic: ReadReq 0xe3e0
10719500: system.mem_ctrls: recvAtomic: WriteReq 0x9dd18
10720500: system.mem_ctrls: recvAtomic: ReadReq 0xe3e0
10720500: system.mem_ctrls: recvAtomic: WriteReq 0x9dd14
10721500: system.mem_ctrls: recvAtomic: ReadReq 0xe3e0
10721500: system.mem_ctrls: recvAtomic: WriteReq 0x9dd10
10722500: system.mem_ctrls: recvAtomic: ReadReq 0xe3e0
10722500: system.mem_ctrls: recvAtomic: WriteReq 0x9dd0c
10723500: system.mem_ctrls: recvAtomic: ReadReq 0xe3e0
10724000: system.mem_ctrls: recvAtomic: ReadReq 0xe3e8
10725000: system.mem_ctrls: recvAtomic: WriteReq 0x9dd08
10726500: system.mem_ctrls: recvAtomic: ReadReq 0x1c30
10726500: system.mem_ctrls: recvAtomic: ReadReq 0x9dd08
10727000: system.mem_ctrls: recvAtomic: ReadReq 0x1c30
10727000: system.mem_ctrls: recvAtomic: ReadReq 0x9dd08
10728500: system.mem_ctrls: recvAtomic: ReadReq 0xe3e8
10729500: system.mem_ctrls: recvAtomic: ReadReq 0xe3e8
10730000: system.mem_ctrls: recvAtomic: ReadReq 0xe3f0
10731000: system.mem_ctrls: recvAtomic: ReadReq 0xe3f0
10731000: system.mem_ctrls: recvAtomic: ReadReq 0x9dd20
10731500: system.mem_ctrls: recvAtomic: ReadReq 0xe3f0
10732000: system.mem_ctrls: recvAtomic: ReadReq 0xe3f8
10732000: system.mem_ctrls: recvAtomic: ReadReq 0x9dd24
10732500: system.mem_ctrls: recvAtomic: ReadReq 0xe3f8
10732500: system.mem_ctrls: recvAtomic: ReadReq 0x9b1c0
10733000: system.mem_ctrls: recvAtomic: ReadReq 0xe3f8
10734000: system.mem_ctrls: recvAtomic: ReadReq 0xe3f8
10734500: system.mem_ctrls: recvAtomic: ReadReq 0xe400
10736000: system.mem_ctrls: recvAtomic: ReadReq 0xe400
10736000: system.mem_ctrls: recvAtomic: ReadReq 0x9b1d0
10736500: system.mem_ctrls: recvAtomic: ReadReq 0xe408
10737500: system.mem_ctrls: recvAtomic: ReadReq 0xe408
10739000: system.mem_ctrls: recvAtomic: ReadReq 0xe408
10739500: system.mem_ctrls: recvAtomic: ReadReq 0xe408
10740000: system.mem_ctrls: recvAtomic: ReadReq 0xe410
10741500: system.mem_ctrls: recvAtomic: ReadReq 0xe410
10741500: system.mem_ctrls: recvAtomic: ReadReq 0x9b1d4
10742000: system.mem_ctrls: recvAtomic: ReadReq 0xe418
10743000: system.mem_ctrls: recvAtomic: ReadReq 0xe418
10743500: system.mem_ctrls: recvAtomic: ReadReq 0xe420
10745000: system.mem_ctrls: recvAtomic: ReadReq 0xe420
10745000: system.mem_ctrls: recvAtomic: ReadReq 0x9b1e0
10746000: system.mem_ctrls: recvAtomic: ReadReq 0xe420
10746500: system.mem_ctrls: recvAtomic: ReadReq 0xe428
10748000: system.mem_ctrls: recvAtomic: ReadReq 0xe428
10748500: system.mem_ctrls: recvAtomic: ReadReq 0xe428
10749000: system.mem_ctrls: recvAtomic: ReadReq 0xe428
10749500: system.mem_ctrls: recvAtomic: ReadReq 0xe430
10749500: system.mem_ctrls: recvAtomic: WriteReq 0x9b1d4
10750000: system.mem_ctrls: recvAtomic: ReadReq 0xe430
10750000: system.mem_ctrls: recvAtomic: WriteReq 0xa0ccb
10750500: system.mem_ctrls: recvAtomic: ReadReq 0xe430
10750500: system.mem_ctrls: recvAtomic: ReadReq 0x9b1c0
10751000: system.mem_ctrls: recvAtomic: ReadReq 0xe430
10752000: system.mem_ctrls: recvAtomic: ReadReq 0xe438
10753500: system.mem_ctrls: recvAtomic: ReadReq 0xe438
10754000: system.mem_ctrls: recvAtomic: ReadReq 0xe440
10755000: system.mem_ctrls: recvAtomic: ReadReq 0xe440
Exiting @ tick 10756351 because Computing system.puengine!! Computing system.puengine!! Computing system.puengine!! Computing system.puengine!! Computing system.puengine!! Computing system.puengine!! Computing system.puengine!! Computing system.puengine!! Computing system.puengine!! Computing system.puengine!! Computing system.puengine!! Computing system.puengine!! Computing system.puengine!! Computing system.puengine!! Computing system.puengine!! Computing system.puengine!! Computing system.puengine!! Computing system.puengine!! Computing system.puengine!! Computing system.puengine!! Computing system.puengine!! Computing system.puengine!! Computing system.puengine!! Computing system.puengine!! Computing system.puengine!! Computing system.puengine!! Computing system.puengine!! Computing system.puengine!! Computing system.puengine!! Computing system.puengine!! Computing system.puengine!! Computing system.puengine!! Computing system.puengine!! Computing system.puengine!! Computing system.puengine!! Computing system.puengine!! Computing syste
See ./m5out/pudma/puse/putest32/X86 directory


